782

C           -182.73629  0.322       0.00238     
C           -183.13024  -1.01287    -0.00809    
S           -184.15206  1.37214     0.01074     
H           -184.99845  -2.16271    -0.01703    
H           -182.40882  -1.82434    -0.01451    
C           -184.52369  -1.18722    -0.00938    
C           -185.24126  0.0         -0.0        
C           -177.92772  0.00029     -0.00041    
C           -179.0752   0.80002     0.00589     
N           -178.36313  -1.32386    -0.01077    
C           -179.7952   -1.40913    -0.01138    
C           -179.50574  2.17963     0.01679     
O           -178.90645  3.25299     0.02519     
O           -180.39469  -2.4823     -0.01979    
C           -181.72682  3.31341     0.02586     
C           -177.57437  -2.54306    -0.02041    
C           -176.74386  -3.8268     -0.03058    
H           -177.06658  -2.22175    0.88899     
H           -178.08217  -2.86437    -0.92981    
H           -182.23459  2.99209     -0.88355    
C           -182.55736  4.59713     0.03602     
H           -181.21905  3.63473     0.93527     
N           -180.93803  2.09423     0.01622     
C           -180.22586  -0.02933    -0.00058    
C           -181.37312  0.77019     0.00582     
C           -174.05953  0.77089     0.00568     
C           -174.77861  1.95852     0.01488     
S           -175.14895  -0.60193    -0.00508    
H           -176.89292  2.59466     0.01977     
H           -174.30426  2.93421     0.02249     
C           -176.17111  1.78351     0.01346     
C           -176.56517  0.44806     0.00308     
C           -168.01557  0.0         -0.0        
C           -168.75304  1.16496     0.00901     
S           -169.09726  -1.40909    -0.01103    
C           -170.15138  0.9737      0.00744     
C           -170.49678  -0.37081    -0.00304    
F           -172.45629  -1.78064    -0.01408    
F           -168.19239  2.3859      0.01853     
S           -171.54742  2.01459     0.01547     
C           -171.89311  -0.56133    -0.00457    
C           -172.63228  0.60588     0.00447     
C           -175.91335  -5.11054    -0.04075    
C           -175.08285  -6.39428    -0.05091    
C           -174.25233  -7.67802    -0.06108    
C           -173.42183  -8.96177    -0.07125    
C           -172.59131  -10.24551   -0.08142    
C           -171.76081  -11.52925   -0.09158    
C           -170.93029  -12.81299   -0.10175    
C           -170.09979  -14.09673   -0.11192    
C           -169.26928  -15.38047   -0.12208    
C           -168.43877  -16.66421   -0.13225    
C           -176.03156  -3.37608    1.24508     
C           -175.31925  -2.92536    2.52074     
C           -174.60695  -2.47464    3.79641     
C           -173.89464  -2.02392    5.07206     
C           -173.18233  -1.5732     6.34773     
C           -172.47003  -1.12248    7.62339     
C           -171.75772  -0.67176    8.89905     
C           -171.04541  -0.22104    10.17471    
C           -183.3879   5.88085     0.04617     
C           -184.21844  7.16457     0.05633     
C           -185.04899  8.44829     0.06649     
C           -185.87953  9.73201     0.07664     
C           -186.71007  11.01573    0.0868      
C           -187.54061  12.29945    0.09695     
C           -188.37115  13.58317    0.10711     
C           -189.20169  14.8669     0.11727     
C           -190.03223  16.15062    0.12742     
C           -190.86278  17.43434    0.13758     
C           -183.26963  4.1464      -1.23966    
C           -183.98191  3.69566     -2.51533    
C           -184.69418  3.24493     -3.79101    
C           -185.40645  2.7942      -5.06669    
C           -186.11872  2.34346     -6.34236    
C           -186.83099  1.89273     -7.61804    
C           -187.54327  1.442       -8.89371    
C           -188.25554  0.99126     -10.16939   
C           -164.06789  0.32201     0.00107     
C           -164.46185  -1.01289    -0.00397    
S           -165.48366  1.37218     0.00516     
H           -166.33005  -2.16276    -0.00825    
H           -163.74042  -1.82438    -0.0071     
C           -165.85529  -1.18724    -0.00456    
C           -166.57287  0.0         -0.0        
C           -159.25932  0.00029     -0.00041    
C           -160.4068   0.80004     0.00264     
N           -159.69473  -1.32389    -0.00539    
C           -161.1268   -1.40917    -0.00566    
C           -160.83735  2.17968     0.00794     
O           -160.23806  3.25307     0.01198     
O           -161.72629  -2.48236    -0.00971    
C           -163.05842  3.31349     0.0124      
C           -158.90598  -2.54312    -0.01008    
C           -158.07546  -3.82689    -0.01504    
H           -158.39819  -2.21812    0.898       
H           -159.41377  -2.86813    -0.91817    
H           -163.56619  2.98847     -0.8957     
C           -163.88897  4.59724     0.01734     
H           -162.55066  3.6385      0.9205      
N           -162.26964  2.09428     0.00771     
C           -161.55746  -0.02933    -0.00046    
C           -162.70472  0.77021     0.00269     
C           -155.39113  0.77091     0.00255     
C           -156.11021  1.95857     0.00692     
S           -156.48056  -0.60194    -0.00264    
H           -158.22452  2.59472     0.00922     
H           -155.63586  2.93428     0.01056     
C           -157.50271  1.78355     0.00622     
C           -157.89677  0.44806     0.00126     
C           -149.34717  0.0         -0.0        
C           -150.08464  1.16499     0.00427     
S           -150.42886  -1.40912    -0.0053     
C           -151.48299  0.97372     0.00348     
C           -151.82838  -0.37082    -0.00154    
F           -153.7879   -1.78068    -0.00685    
F           -149.52399  2.38596     0.00884     
S           -152.87903  2.01463     0.00729     
C           -153.22472  -0.56134    -0.00229    
C           -153.96388  0.6059      0.00201     
C           -157.24496  -5.11066    -0.01999    
C           -156.41445  -6.39444    -0.02493    
C           -155.58394  -7.67821    -0.02989    
C           -154.75343  -8.96198    -0.03484    
C           -153.92292  -10.24575   -0.03979    
C           -153.09241  -11.52953   -0.04474    
C           -152.2619   -12.81329   -0.0497     
C           -151.43139  -14.09707   -0.05465    
C           -150.60088  -15.38084   -0.0596     
C           -149.77037  -16.66461   -0.06455    
C           -157.36316  -3.37099    1.25879     
C           -156.65085  -2.91509    2.5326      
C           -155.93855  -2.4592     3.80643     
C           -155.22624  -2.0033     5.08024     
C           -154.51394  -1.5474     6.35407     
C           -153.80163  -1.0915     7.62789     
C           -153.08932  -0.6356     8.9017      
C           -152.37702  -0.1797     10.17553    
C           -164.71951  5.88099     0.02228     
C           -165.55005  7.16474     0.02722     
C           -166.38059  8.44849     0.03216     
C           -167.21113  9.73224     0.0371      
C           -168.04167  11.01599    0.04204     
C           -168.87221  12.29975    0.04699     
C           -169.70276  13.5835     0.05193     
C           -170.5333   14.86725    0.05687     
C           -171.36384  16.151      0.06181     
C           -172.19438  17.43475    0.06675     
C           -164.60124  4.14133     -1.25649    
C           -165.31351  3.68541     -2.53033    
C           -166.02578  3.2295      -3.80416    
C           -166.73805  2.77359     -5.078      
C           -167.45033  2.31768     -6.35183    
C           -168.1626   1.86177     -7.62566    
C           -168.87487  1.40585     -8.8995     
C           -169.58714  0.94994     -10.17333   
C           -145.39949  0.32201     0.00107     
C           -145.79345  -1.01289    -0.00397    
S           -146.81527  1.37218     0.00516     
H           -147.66165  -2.16276    -0.00825    
H           -145.07202  -1.82438    -0.0071     
C           -147.18689  -1.18724    -0.00456    
C           -147.90447  0.0         -0.0        
C           -140.59093  0.00029     -0.00041    
C           -141.73841  0.80004     0.00264     
N           -141.02634  -1.32389    -0.00539    
C           -142.4584   -1.40917    -0.00566    
C           -142.16895  2.17968     0.00794     
O           -141.56966  3.25307     0.01198     
O           -143.05789  -2.48236    -0.00971    
C           -144.39003  3.31349     0.0124      
C           -140.23758  -2.54312    -0.01008    
C           -139.40707  -3.82689    -0.01504    
H           -139.72979  -2.21812    0.898       
H           -140.74537  -2.86813    -0.91817    
H           -144.89779  2.98847     -0.8957     
C           -145.22057  4.59724     0.01734     
H           -143.88226  3.6385      0.9205      
N           -143.60124  2.09428     0.00771     
C           -142.88906  -0.02933    -0.00046    
C           -144.03633  0.77021     0.00269     
C           -136.72274  0.77091     0.00255     
C           -137.44181  1.95857     0.00692     
S           -137.81216  -0.60194    -0.00264    
H           -139.55612  2.59472     0.00922     
H           -136.96747  2.93428     0.01056     
C           -138.83432  1.78355     0.00622     
C           -139.22838  0.44806     0.00126     
C           -130.67878  0.0         -0.0        
C           -131.41624  1.16499     0.00427     
S           -131.76047  -1.40912    -0.0053     
C           -132.81459  0.97372     0.00348     
C           -133.15999  -0.37082    -0.00154    
F           -135.1195   -1.78068    -0.00685    
F           -130.85559  2.38596     0.00884     
S           -134.21063  2.01463     0.00729     
C           -134.55632  -0.56134    -0.00229    
C           -135.29549  0.6059      0.00201     
C           -138.57656  -5.11066    -0.01999    
C           -137.74605  -6.39444    -0.02493    
C           -136.91554  -7.67821    -0.02989    
C           -136.08503  -8.96198    -0.03484    
C           -135.25452  -10.24575   -0.03979    
C           -134.42401  -11.52953   -0.04474    
C           -133.5935   -12.81329   -0.0497     
C           -132.76299  -14.09707   -0.05465    
C           -131.93249  -15.38084   -0.0596     
C           -131.10197  -16.66461   -0.06455    
C           -138.69477  -3.37099    1.25879     
C           -137.98246  -2.91509    2.5326      
C           -137.27015  -2.4592     3.80643     
C           -136.55784  -2.0033     5.08024     
C           -135.84554  -1.5474     6.35407     
C           -135.13323  -1.0915     7.62789     
C           -134.42092  -0.6356     8.9017      
C           -133.70862  -0.1797     10.17553    
C           -146.05111  5.88099     0.02228     
C           -146.88165  7.16474     0.02722     
C           -147.71219  8.44849     0.03216     
C           -148.54273  9.73224     0.0371      
C           -149.37328  11.01599    0.04204     
C           -150.20382  12.29975    0.04699     
C           -151.03436  13.5835     0.05193     
C           -151.8649   14.86725    0.05687     
C           -152.69544  16.151      0.06181     
C           -153.52598  17.43475    0.06675     
C           -145.93284  4.14133     -1.25649    
C           -146.64511  3.68541     -2.53033    
C           -147.35739  3.2295      -3.80416    
C           -148.06966  2.77359     -5.078      
C           -148.78193  2.31768     -6.35183    
C           -149.4942   1.86177     -7.62566    
C           -150.20647  1.40585     -8.8995     
C           -150.91875  0.94994     -10.17333   
C           -126.7311   0.32201     0.00107     
C           -127.12506  -1.01289    -0.00397    
S           -128.14687  1.37218     0.00516     
H           -128.99326  -2.16276    -0.00825    
H           -126.40363  -1.82438    -0.0071     
C           -128.5185   -1.18724    -0.00456    
C           -129.23607  0.0         -0.0        
C           -121.92253  0.00029     -0.00041    
C           -123.07001  0.80004     0.00264     
N           -122.35794  -1.32389    -0.00539    
C           -123.79001  -1.40917    -0.00566    
C           -123.50055  2.17968     0.00794     
O           -122.90126  3.25307     0.01198     
O           -124.3895   -2.48236    -0.00971    
C           -125.72163  3.31349     0.0124      
C           -121.56918  -2.54312    -0.01008    
C           -120.73867  -3.82689    -0.01504    
H           -121.06139  -2.21812    0.898       
H           -122.07698  -2.86813    -0.91817    
H           -126.2294   2.98847     -0.8957     
C           -126.55217  4.59724     0.01734     
H           -125.21386  3.6385      0.9205      
N           -124.93284  2.09428     0.00771     
C           -124.22067  -0.02933    -0.00046    
C           -125.36793  0.77021     0.00269     
C           -118.05434  0.77091     0.00255     
C           -118.77342  1.95857     0.00692     
S           -119.14376  -0.60194    -0.00264    
H           -120.88773  2.59472     0.00922     
H           -118.29907  2.93428     0.01056     
C           -120.16592  1.78355     0.00622     
C           -120.55998  0.44806     0.00126     
C           -112.01038  0.0         -0.0        
C           -112.74785  1.16499     0.00427     
S           -113.09207  -1.40912    -0.0053     
C           -114.14619  0.97372     0.00348     
C           -114.49159  -0.37082    -0.00154    
F           -116.4511   -1.78068    -0.00685    
F           -112.1872   2.38596     0.00884     
S           -115.54223  2.01463     0.00729     
C           -115.88792  -0.56134    -0.00229    
C           -116.62709  0.6059      0.00201     
C           -119.90816  -5.11066    -0.01999    
C           -119.07766  -6.39444    -0.02493    
C           -118.24714  -7.67821    -0.02989    
C           -117.41664  -8.96198    -0.03484    
C           -116.58612  -10.24575   -0.03979    
C           -115.75562  -11.52953   -0.04474    
C           -114.9251   -12.81329   -0.0497     
C           -114.0946   -14.09707   -0.05465    
C           -113.26409  -15.38084   -0.0596     
C           -112.43358  -16.66461   -0.06455    
C           -120.02637  -3.37099    1.25879     
C           -119.31406  -2.91509    2.5326      
C           -118.60176  -2.4592     3.80643     
C           -117.88945  -2.0033     5.08024     
C           -117.17715  -1.5474     6.35407     
C           -116.46484  -1.0915     7.62789     
C           -115.75253  -0.6356     8.9017      
C           -115.04022  -0.1797     10.17553    
C           -127.38271  5.88099     0.02228     
C           -128.21326  7.16474     0.02722     
C           -129.0438   8.44849     0.03216     
C           -129.87434  9.73224     0.0371      
C           -130.70488  11.01599    0.04204     
C           -131.53542  12.29975    0.04699     
C           -132.36596  13.5835     0.05193     
C           -133.1965   14.86725    0.05687     
C           -134.02705  16.151      0.06181     
C           -134.85759  17.43475    0.06675     
C           -127.26444  4.14133     -1.25649    
C           -127.97672  3.68541     -2.53033    
C           -128.68899  3.2295      -3.80416    
C           -129.40126  2.77359     -5.078      
C           -130.11353  2.31768     -6.35183    
C           -130.82581  1.86177     -7.62566    
C           -131.53808  1.40585     -8.8995     
C           -132.25035  0.94994     -10.17333   
C           -108.0627   0.32201     0.00107     
C           -108.45666  -1.01289    -0.00397    
S           -109.47847  1.37218     0.00516     
H           -110.32486  -2.16276    -0.00825    
H           -107.73523  -1.82438    -0.0071     
C           -109.8501   -1.18724    -0.00456    
C           -110.56768  0.0         -0.0        
C           -103.25414  0.00029     -0.00041    
C           -104.40161  0.80004     0.00264     
N           -103.68954  -1.32389    -0.00539    
C           -105.12161  -1.40917    -0.00566    
C           -104.83216  2.17968     0.00794     
O           -104.23287  3.25307     0.01198     
O           -105.7211   -2.48236    -0.00971    
C           -107.05323  3.31349     0.0124      
C           -102.90079  -2.54312    -0.01008    
C           -102.07027  -3.82689    -0.01504    
H           -102.393    -2.21812    0.898       
H           -103.40858  -2.86813    -0.91817    
H           -107.561    2.98847     -0.8957     
C           -107.88378  4.59724     0.01734     
H           -106.54547  3.6385      0.9205      
N           -106.26445  2.09428     0.00771     
C           -105.55227  -0.02933    -0.00046    
C           -106.69953  0.77021     0.00269     
C           -99.38594   0.77091     0.00255     
C           -100.10502  1.95857     0.00692     
S           -100.47537  -0.60194    -0.00264    
H           -102.21933  2.59472     0.00922     
H           -99.63067   2.93428     0.01056     
C           -101.49752  1.78355     0.00622     
C           -101.89158  0.44806     0.00126     
C           -93.34198   0.0         -0.0        
C           -94.07945   1.16499     0.00427     
S           -94.42367   -1.40912    -0.0053     
C           -95.4778    0.97372     0.00348     
C           -95.82319   -0.37082    -0.00154    
F           -97.78271   -1.78068    -0.00685    
F           -93.5188    2.38596     0.00884     
S           -96.87384   2.01463     0.00729     
C           -97.21953   -0.56134    -0.00229    
C           -97.95869   0.6059      0.00201     
C           -101.23977  -5.11066    -0.01999    
C           -100.40926  -6.39444    -0.02493    
C           -99.57875   -7.67821    -0.02989    
C           -98.74824   -8.96198    -0.03484    
C           -97.91773   -10.24575   -0.03979    
C           -97.08722   -11.52953   -0.04474    
C           -96.25671   -12.81329   -0.0497     
C           -95.4262    -14.09707   -0.05465    
C           -94.5957    -15.38084   -0.0596     
C           -93.76518   -16.66461   -0.06455    
C           -101.35797  -3.37099    1.25879     
C           -100.64566  -2.91509    2.5326      
C           -99.93336   -2.4592     3.80643     
C           -99.22105   -2.0033     5.08024     
C           -98.50875   -1.5474     6.35407     
C           -97.79644   -1.0915     7.62789     
C           -97.08413   -0.6356     8.9017      
C           -96.37183   -0.1797     10.17553    
C           -108.71432  5.88099     0.02228     
C           -109.54486  7.16474     0.02722     
C           -110.3754   8.44849     0.03216     
C           -111.20594  9.73224     0.0371      
C           -112.03648  11.01599    0.04204     
C           -112.86702  12.29975    0.04699     
C           -113.69757  13.5835     0.05193     
C           -114.52811  14.86725    0.05687     
C           -115.35865  16.151      0.06181     
C           -116.18919  17.43475    0.06675     
C           -108.59605  4.14133     -1.25649    
C           -109.30832  3.68541     -2.53033    
C           -110.02059  3.2295      -3.80416    
C           -110.73286  2.77359     -5.078      
C           -111.44514  2.31768     -6.35183    
C           -112.15741  1.86177     -7.62566    
C           -112.86968  1.40585     -8.8995     
C           -113.58195  0.94994     -10.17333   
C           -89.3943    0.32201     0.00107     
C           -89.78826   -1.01289    -0.00397    
S           -90.81008   1.37218     0.00516     
H           -91.65646   -2.16276    -0.00825    
H           -89.06683   -1.82438    -0.0071     
C           -91.1817    -1.18724    -0.00456    
C           -91.89928   0.0         -0.0        
C           -84.58574   0.00029     -0.00041    
C           -85.73322   0.80004     0.00264     
N           -85.02115   -1.32389    -0.00539    
C           -86.45322   -1.40917    -0.00566    
C           -86.16376   2.17968     0.00794     
O           -85.56447   3.25307     0.01198     
O           -87.05271   -2.48236    -0.00971    
C           -88.38484   3.31349     0.0124      
C           -84.23239   -2.54312    -0.01008    
C           -83.40188   -3.82689    -0.01504    
H           -83.7246    -2.21812    0.898       
H           -84.74018   -2.86813    -0.91817    
H           -88.89261   2.98847     -0.8957     
C           -89.21538   4.59724     0.01734     
H           -87.87707   3.6385      0.9205      
N           -87.59605   2.09428     0.00771     
C           -86.88387   -0.02933    -0.00046    
C           -88.03114   0.77021     0.00269     
C           -80.71755   0.77091     0.00255     
C           -81.43663   1.95857     0.00692     
S           -81.80697   -0.60194    -0.00264    
H           -83.55093   2.59472     0.00922     
H           -80.96228   2.93428     0.01056     
C           -82.82913   1.78355     0.00622     
C           -83.22319   0.44806     0.00126     
C           -74.67359   0.0         -0.0        
C           -75.41105   1.16499     0.00427     
S           -75.75528   -1.40912    -0.0053     
C           -76.8094    0.97372     0.00348     
C           -77.1548    -0.37082    -0.00154    
F           -79.11431   -1.78068    -0.00685    
F           -74.8504    2.38596     0.00884     
S           -78.20544   2.01463     0.00729     
C           -78.55113   -0.56134    -0.00229    
C           -79.2903    0.6059      0.00201     
C           -82.57137   -5.11066    -0.01999    
C           -81.74087   -6.39444    -0.02493    
C           -80.91035   -7.67821    -0.02989    
C           -80.07985   -8.96198    -0.03484    
C           -79.24933   -10.24575   -0.03979    
C           -78.41883   -11.52953   -0.04474    
C           -77.58831   -12.81329   -0.0497     
C           -76.75781   -14.09707   -0.05465    
C           -75.9273    -15.38084   -0.0596     
C           -75.09679   -16.66461   -0.06455    
C           -82.68958   -3.37099    1.25879     
C           -81.97727   -2.91509    2.5326      
C           -81.26496   -2.4592     3.80643     
C           -80.55265   -2.0033     5.08024     
C           -79.84035   -1.5474     6.35407     
C           -79.12804   -1.0915     7.62789     
C           -78.41573   -0.6356     8.9017      
C           -77.70343   -0.1797     10.17553    
C           -90.04592   5.88099     0.02228     
C           -90.87646   7.16474     0.02722     
C           -91.707     8.44849     0.03216     
C           -92.53754   9.73224     0.0371      
C           -93.36809   11.01599    0.04204     
C           -94.19863   12.29975    0.04699     
C           -95.02917   13.5835     0.05193     
C           -95.85971   14.86725    0.05687     
C           -96.69025   16.151      0.06181     
C           -97.52079   17.43475    0.06675     
C           -89.92765   4.14133     -1.25649    
C           -90.63992   3.68541     -2.53033    
C           -91.3522    3.2295      -3.80416    
C           -92.06447   2.77359     -5.078      
C           -92.77674   2.31768     -6.35183    
C           -93.48901   1.86177     -7.62566    
C           -94.20128   1.40585     -8.8995     
C           -94.91356   0.94994     -10.17333   
C           -70.72591   0.32201     0.00107     
C           -71.11987   -1.01289    -0.00397    
S           -72.14168   1.37218     0.00516     
H           -72.98807   -2.16276    -0.00825    
H           -70.39844   -1.82438    -0.0071     
C           -72.51331   -1.18724    -0.00456    
C           -73.23089   0.0         -0.0        
C           -65.91734   0.00029     -0.00041    
C           -67.06482   0.80004     0.00264     
N           -66.35275   -1.32389    -0.00539    
C           -67.78482   -1.40917    -0.00566    
C           -67.49536   2.17968     0.00794     
O           -66.89607   3.25307     0.01198     
O           -68.38431   -2.48236    -0.00971    
C           -69.71644   3.31349     0.0124      
C           -65.564     -2.54312    -0.01008    
C           -64.73348   -3.82689    -0.01504    
H           -65.0562    -2.21812    0.898       
H           -66.07179   -2.86813    -0.91817    
H           -70.22421   2.98847     -0.8957     
C           -70.54698   4.59724     0.01734     
H           -69.20867   3.6385      0.9205      
N           -68.92765   2.09428     0.00771     
C           -68.21548   -0.02933    -0.00046    
C           -69.36274   0.77021     0.00269     
C           -62.04915   0.77091     0.00255     
C           -62.76823   1.95857     0.00692     
S           -63.13857   -0.60194    -0.00264    
H           -64.88254   2.59472     0.00922     
H           -62.29388   2.93428     0.01056     
C           -64.16073   1.78355     0.00622     
C           -64.55479   0.44806     0.00126     
C           -56.00519   0.0         -0.0        
C           -56.74266   1.16499     0.00427     
S           -57.08688   -1.40912    -0.0053     
C           -58.141     0.97372     0.00348     
C           -58.4864    -0.37082    -0.00154    
F           -60.44591   -1.78068    -0.00685    
F           -56.18201   2.38596     0.00884     
S           -59.53705   2.01463     0.00729     
C           -59.88273   -0.56134    -0.00229    
C           -60.6219    0.6059      0.00201     
C           -63.90298   -5.11066    -0.01999    
C           -63.07247   -6.39444    -0.02493    
C           -62.24196   -7.67821    -0.02989    
C           -61.41145   -8.96198    -0.03484    
C           -60.58094   -10.24575   -0.03979    
C           -59.75043   -11.52953   -0.04474    
C           -58.91992   -12.81329   -0.0497     
C           -58.08941   -14.09707   -0.05465    
C           -57.2589    -15.38084   -0.0596     
C           -56.42839   -16.66461   -0.06455    
C           -64.02118   -3.37099    1.25879     
C           -63.30887   -2.91509    2.5326      
C           -62.59657   -2.4592     3.80643     
C           -61.88426   -2.0033     5.08024     
C           -61.17196   -1.5474     6.35407     
C           -60.45965   -1.0915     7.62789     
C           -59.74734   -0.6356     8.9017      
C           -59.03503   -0.1797     10.17553    
C           -71.37752   5.88099     0.02228     
C           -72.20807   7.16474     0.02722     
C           -73.03861   8.44849     0.03216     
C           -73.86915   9.73224     0.0371      
C           -74.69969   11.01599    0.04204     
C           -75.53023   12.29975    0.04699     
C           -76.36077   13.5835     0.05193     
C           -77.19131   14.86725    0.05687     
C           -78.02186   16.151      0.06181     
C           -78.8524    17.43475    0.06675     
C           -71.25925   4.14133     -1.25649    
C           -71.97153   3.68541     -2.53033    
C           -72.6838    3.2295      -3.80416    
C           -73.39607   2.77359     -5.078      
C           -74.10834   2.31768     -6.35183    
C           -74.82062   1.86177     -7.62566    
C           -75.53289   1.40585     -8.8995     
C           -76.24516   0.94994     -10.17333   
C           -52.05751   0.32201     0.00107     
C           -52.45147   -1.01289    -0.00397    
S           -53.47328   1.37218     0.00516     
H           -54.31967   -2.16276    -0.00825    
H           -51.73004   -1.82438    -0.0071     
C           -53.84491   -1.18724    -0.00456    
C           -54.56249   0.0         -0.0        
C           -47.24895   0.00029     -0.00041    
C           -48.39642   0.80004     0.00264     
N           -47.68435   -1.32389    -0.00539    
C           -49.11642   -1.40917    -0.00566    
C           -48.82697   2.17968     0.00794     
O           -48.22768   3.25307     0.01198     
O           -49.71591   -2.48236    -0.00971    
C           -51.04804   3.31349     0.0124      
C           -46.8956    -2.54312    -0.01008    
C           -46.06509   -3.82689    -0.01504    
H           -46.38781   -2.21812    0.898       
H           -47.40339   -2.86813    -0.91817    
H           -51.55581   2.98847     -0.8957     
C           -51.87859   4.59724     0.01734     
H           -50.54028   3.6385      0.9205      
N           -50.25926   2.09428     0.00771     
C           -49.54708   -0.02933    -0.00046    
C           -50.69434   0.77021     0.00269     
C           -43.38075   0.77091     0.00255     
C           -44.09983   1.95857     0.00692     
S           -44.47018   -0.60194    -0.00264    
H           -46.21414   2.59472     0.00922     
H           -43.62548   2.93428     0.01056     
C           -45.49233   1.78355     0.00622     
C           -45.88639   0.44806     0.00126     
C           -37.33679   0.0         -0.0        
C           -38.07426   1.16499     0.00427     
S           -38.41848   -1.40912    -0.0053     
C           -39.47261   0.97372     0.00348     
C           -39.818     -0.37082    -0.00154    
F           -41.77752   -1.78068    -0.00685    
F           -37.51361   2.38596     0.00884     
S           -40.86865   2.01463     0.00729     
C           -41.21434   -0.56134    -0.00229    
C           -41.9535    0.6059      0.00201     
C           -45.23458   -5.11066    -0.01999    
C           -44.40407   -6.39444    -0.02493    
C           -43.57356   -7.67821    -0.02989    
C           -42.74305   -8.96198    -0.03484    
C           -41.91254   -10.24575   -0.03979    
C           -41.08203   -11.52953   -0.04474    
C           -40.25152   -12.81329   -0.0497     
C           -39.42101   -14.09707   -0.05465    
C           -38.59051   -15.38084   -0.0596     
C           -37.75999   -16.66461   -0.06455    
C           -45.35278   -3.37099    1.25879     
C           -44.64047   -2.91509    2.5326      
C           -43.92817   -2.4592     3.80643     
C           -43.21586   -2.0033     5.08024     
C           -42.50356   -1.5474     6.35407     
C           -41.79125   -1.0915     7.62789     
C           -41.07894   -0.6356     8.9017      
C           -40.36664   -0.1797     10.17553    
C           -52.70913   5.88099     0.02228     
C           -53.53967   7.16474     0.02722     
C           -54.37021   8.44849     0.03216     
C           -55.20075   9.73224     0.0371      
C           -56.03129   11.01599    0.04204     
C           -56.86183   12.29975    0.04699     
C           -57.69238   13.5835     0.05193     
C           -58.52292   14.86725    0.05687     
C           -59.35346   16.151      0.06181     
C           -60.184     17.43475    0.06675     
C           -52.59086   4.14133     -1.25649    
C           -53.30313   3.68541     -2.53033    
C           -54.0154    3.2295      -3.80416    
C           -54.72767   2.77359     -5.078      
C           -55.43995   2.31768     -6.35183    
C           -56.15222   1.86177     -7.62566    
C           -56.86449   1.40585     -8.8995     
C           -57.57676   0.94994     -10.17333   
C           -33.38911   0.32201     0.00107     
C           -33.78307   -1.01289    -0.00397    
S           -34.80489   1.37218     0.00516     
H           -35.65127   -2.16276    -0.00825    
H           -33.06164   -1.82438    -0.0071     
C           -35.17652   -1.18724    -0.00456    
C           -35.89409   0.0         -0.0        
C           -28.58055   0.00029     -0.00041    
C           -29.72803   0.80004     0.00264     
N           -29.01596   -1.32389    -0.00539    
C           -30.44803   -1.40917    -0.00566    
C           -30.15857   2.17968     0.00794     
O           -29.55928   3.25307     0.01198     
O           -31.04752   -2.48236    -0.00971    
C           -32.37965   3.31349     0.0124      
C           -28.2272    -2.54312    -0.01008    
C           -27.39669   -3.82689    -0.01504    
H           -27.71941   -2.21812    0.898       
H           -28.73499   -2.86813    -0.91817    
H           -32.88742   2.98847     -0.8957     
C           -33.21019   4.59724     0.01734     
H           -31.87188   3.6385      0.9205      
N           -31.59086   2.09428     0.00771     
C           -30.87868   -0.02933    -0.00046    
C           -32.02595   0.77021     0.00269     
C           -24.71236   0.77091     0.00255     
C           -25.43144   1.95857     0.00692     
S           -25.80178   -0.60194    -0.00264    
H           -27.54574   2.59472     0.00922     
H           -24.95709   2.93428     0.01056     
C           -26.82394   1.78355     0.00622     
C           -27.218     0.44806     0.00126     
C           -18.6684    0.0         -0.0        
C           -19.40586   1.16499     0.00427     
S           -19.75009   -1.40912    -0.0053     
C           -20.80421   0.97372     0.00348     
C           -21.14961   -0.37082    -0.00154    
F           -23.10912   -1.78068    -0.00685    
F           -18.84521   2.38596     0.00884     
S           -22.20025   2.01463     0.00729     
C           -22.54594   -0.56134    -0.00229    
C           -23.28511   0.6059      0.00201     
C           -26.56618   -5.11066    -0.01999    
C           -25.73568   -6.39444    -0.02493    
C           -24.90516   -7.67821    -0.02989    
C           -24.07466   -8.96198    -0.03484    
C           -23.24414   -10.24575   -0.03979    
C           -22.41364   -11.52953   -0.04474    
C           -21.58312   -12.81329   -0.0497     
C           -20.75262   -14.09707   -0.05465    
C           -19.92211   -15.38084   -0.0596     
C           -19.0916    -16.66461   -0.06455    
C           -26.68439   -3.37099    1.25879     
C           -25.97208   -2.91509    2.5326      
C           -25.25977   -2.4592     3.80643     
C           -24.54746   -2.0033     5.08024     
C           -23.83516   -1.5474     6.35407     
C           -23.12285   -1.0915     7.62789     
C           -22.41054   -0.6356     8.9017      
C           -21.69824   -0.1797     10.17553    
C           -34.04073   5.88099     0.02228     
C           -34.87127   7.16474     0.02722     
C           -35.70181   8.44849     0.03216     
C           -36.53236   9.73224     0.0371      
C           -37.3629    11.01599    0.04204     
C           -38.19344   12.29975    0.04699     
C           -39.02398   13.5835     0.05193     
C           -39.85452   14.86725    0.05687     
C           -40.68506   16.151      0.06181     
C           -41.5156    17.43475    0.06675     
C           -33.92246   4.14133     -1.25649    
C           -34.63473   3.68541     -2.53033    
C           -35.34701   3.2295      -3.80416    
C           -36.05928   2.77359     -5.078      
C           -36.77155   2.31768     -6.35183    
C           -37.48382   1.86177     -7.62566    
C           -38.19609   1.40585     -8.8995     
C           -38.90837   0.94994     -10.17333   
C           -14.72072   0.32201     0.00107     
C           -15.11468   -1.01289    -0.00397    
S           -16.13649   1.37218     0.00516     
H           -16.98288   -2.16276    -0.00825    
H           -14.39325   -1.82438    -0.0071     
C           -16.50812   -1.18724    -0.00456    
C           -17.2257    0.0         -0.0        
C           -9.91215    0.00029     -0.00041    
C           -11.05963   0.80004     0.00264     
N           -10.34756   -1.32389    -0.00539    
C           -11.77963   -1.40917    -0.00566    
C           -11.49017   2.17968     0.00794     
O           -10.89088   3.25307     0.01198     
O           -12.37912   -2.48236    -0.00971    
C           -13.71125   3.31349     0.0124      
C           -9.55881    -2.54312    -0.01008    
C           -8.72829    -3.82689    -0.01504    
H           -9.05101    -2.21812    0.898       
H           -10.0666    -2.86813    -0.91817    
H           -14.21902   2.98847     -0.8957     
C           -14.54179   4.59724     0.01734     
H           -13.20348   3.6385      0.9205      
N           -12.92247   2.09428     0.00771     
C           -12.21029   -0.02933    -0.00046    
C           -13.35755   0.77021     0.00269     
C           -6.04396    0.77091     0.00255     
C           -6.76304    1.95857     0.00692     
S           -7.13338    -0.60194    -0.00264    
H           -8.87735    2.59472     0.00922     
H           -6.28869    2.93428     0.01056     
C           -8.15554    1.78355     0.00622     
C           -8.5496     0.44806     0.00126     
C           0.0         0.0         0.0         
C           -0.73747    1.16499     0.00427     
S           -1.08169    -1.40912    -0.0053     
C           -2.13581    0.97372     0.00348     
C           -2.48121    -0.37082    -0.00154    
F           -4.44072    -1.78068    -0.00685    
F           -0.17682    2.38596     0.00884     
S           -3.53186    2.01463     0.00729     
C           -3.87754    -0.56134    -0.00229    
C           -4.61671    0.6059      0.00201     
C           -7.89779    -5.11066    -0.01999    
C           -7.06728    -6.39444    -0.02493    
C           -6.23677    -7.67821    -0.02989    
C           -5.40626    -8.96198    -0.03484    
C           -4.57575    -10.24575   -0.03979    
C           -3.74524    -11.52953   -0.04474    
C           -2.91473    -12.81329   -0.0497     
C           -2.08422    -14.09707   -0.05465    
C           -1.25371    -15.38084   -0.0596     
C           -0.4232     -16.66461   -0.06455    
C           -8.01599    -3.37099    1.25879     
C           -7.30368    -2.91509    2.5326      
C           -6.59138    -2.4592     3.80643     
C           -5.87907    -2.0033     5.08024     
C           -5.16677    -1.5474     6.35407     
C           -4.45446    -1.0915     7.62789     
C           -3.74215    -0.6356     8.9017      
C           -3.02984    -0.1797     10.17553    
C           -15.37233   5.88099     0.02228     
C           -16.20288   7.16474     0.02722     
C           -17.03342   8.44849     0.03216     
C           -17.86396   9.73224     0.0371      
C           -18.6945    11.01599    0.04204     
C           -19.52504   12.29975    0.04699     
C           -20.35558   13.5835     0.05193     
C           -21.18612   14.86725    0.05687     
C           -22.01667   16.151      0.06181     
C           -22.84721   17.43475    0.06675     
C           -15.25407   4.14133     -1.25649    
C           -15.96634   3.68541     -2.53033    
C           -16.67861   3.2295      -3.80416    
C           -17.39088   2.77359     -5.078      
C           -18.10315   2.31768     -6.35183    
C           -18.81543   1.86177     -7.62566    
C           -19.5277    1.40585     -8.8995     
C           -20.23997   0.94994     -10.17333   
H           -186.33126  0.0         -0.0        
H           1.09        0.0         0.0         
