502

C           -119.9549   -0.30048    0.32971     
C           -120.50326  -1.38047    1.05239     
C           -120.83314  0.6125      -0.2907     
C           -122.73508  -0.66075    0.52603     
C           -121.87913  -1.56801    1.15437     
C           -122.20402  0.42904     -0.19276    
C           -123.32185  1.28787     -0.78496    
C           -124.56061  0.53124     -0.30467    
C           -124.19608  -0.59752    0.45658     
C           -125.18249  -1.42527    0.99729     
C           -123.28675  2.72448     -0.21585    
C           -123.24701  1.32917     -2.32761    
H           -123.11196  2.41018     -2.29212    
H           -123.38206  0.24815     -2.3631     
C           -123.17295  1.37003     -3.85427    
H           -123.31146  3.12635     -1.22876    
C           -123.25203  4.14563     0.34715     
H           -123.26204  2.32261     0.79707     
H           -122.27204  -2.40447    1.72676     
H           -119.83587  -2.06576    1.56669     
H           -120.42614  1.45254     -0.84176    
H           -124.91888  -2.29021    1.60064     
H           -126.1748   1.70211     -1.11359    
H           -127.29147  -1.74368    1.21137     
C           -125.89526  0.83196     -0.53054    
C           -126.52142  -1.12047    0.76613     
C           -126.90282  0.0         0.0         
C           -115.5442   0.0         0.0         
C           -116.35569  1.18664     0.08777     
C           -116.24499  -1.19111    0.02003     
N           -115.89626  2.44346     0.11254     
N           -118.39926  2.30126     0.29394     
S           -117.20385  3.4261      0.2545      
H           -118.10985  -2.25911    0.0926      
H           -115.69479  -2.12166    -0.08226    
C           -117.65945  -1.2715     0.12259     
C           -117.80951  1.10406     0.19318     
C           -118.48587  -0.16733    0.21323     
C           -123.2173   5.56679     0.91014     
C           -123.18257  6.98793     1.47314     
C           -123.14785  8.40909     2.03613     
C           -123.11312  9.83024     2.59913     
C           -123.0784   11.25139    3.16212     
C           -123.04367  12.67254    3.72511     
C           -123.09889  1.4109      -5.38093    
C           -123.02482  1.45177     -6.90759    
C           -122.95076  1.49264     -8.43425    
C           -122.8767   1.53351     -9.96091    
C           -122.80263  1.57438     -11.48756   
C           -122.72857  1.61524     -13.01422   
C           -107.11666  0.30216     -0.32817    
C           -107.66502  1.38585     -1.0453     
C           -107.9949   -0.61398    0.28756     
C           -109.89684  0.66344     -0.52263    
C           -109.04088  1.57391     -1.14632    
C           -109.36578  -0.43002    0.19056     
C           -110.48361  -1.29188    0.77835     
C           -111.72237  -0.53279    0.30195     
C           -111.35784  0.59986     -0.45351    
C           -112.34424  1.43037     -0.98997    
C           -110.4485   -2.72555    0.20188     
C           -110.40877  -1.34108    2.32077     
H           -110.27372  -2.4219     2.27974     
H           -110.54382  -0.26026    2.3618      
C           -110.33471  -1.38977    3.8472      
H           -110.47322  -3.13261    1.21272     
C           -110.41378  -4.1438     -0.36839    
H           -110.4238   -2.3185     -0.80896    
H           -109.43379  2.41329     -1.71441    
H           -106.99762  2.07376     -1.55608    
H           -107.5879   -1.45683    0.83431     
H           -112.08063  2.29838     -1.58888    
H           -113.33656  -1.7078     1.10485     
H           -114.45323  1.74986     -1.20242    
C           -113.05702  -0.83467    0.52627     
C           -113.68318  1.12438     -0.76038    
C           -114.06458  0.0         0.0         
C           -102.70595  -0.0        0.0         
C           -103.51745  -1.18618    -0.09385    
C           -103.40675  1.1912      -0.01392    
N           -103.05801  -2.44285    -0.12506    
N           -105.56102  -2.29973    -0.30573    
S           -104.36561  -3.42475    -0.27206    
H           -105.2716   2.25955     -0.08102    
H           -102.85655  2.12121     0.09313     
C           -104.82121  1.27211     -0.11607    
C           -104.97126  -1.10305    -0.19883    
C           -105.64763  0.16842     -0.21237    
C           -110.37905  -5.56205    -0.93866    
C           -110.34433  -6.98029    -1.50894    
C           -110.30961  -8.39854    -2.0792     
C           -110.27488  -9.81679    -2.64948    
C           -110.24016  -11.23504   -3.21975    
C           -110.20543  -12.65328   -3.79001    
C           -110.26064  -1.43846    5.37363     
C           -110.18658  -1.48716    6.90006     
C           -110.11252  -1.53585    8.42649     
C           -110.03845  -1.58454    9.95291     
C           -109.96439  -1.63323    11.47934    
C           -109.89033  -1.68193    13.00577    
C           -94.27841   -0.30216    0.32817     
C           -94.82677   -1.38585    1.0453      
C           -95.15666   0.61398     -0.28756    
C           -97.05859   -0.66344    0.52263     
C           -96.20264   -1.57391    1.14632     
C           -96.52754   0.43002     -0.19056    
C           -97.64536   1.29188     -0.77835    
C           -98.88412   0.53279     -0.30195    
C           -98.51959   -0.59986    0.45351     
C           -99.506     -1.43037    0.98997     
C           -97.61026   2.72555     -0.20188    
C           -97.57053   1.34108     -2.32077    
H           -97.43547   2.4219      -2.27974    
H           -97.70558   0.26026     -2.3618     
C           -97.49646   1.38977     -3.8472     
H           -97.63497   3.13261     -1.21272    
C           -97.57554   4.1438      0.36839     
H           -97.58555   2.3185      0.80896     
H           -96.59555   -2.41329    1.71441     
H           -94.15938   -2.07376    1.55608     
H           -94.74966   1.45683     -0.83431    
H           -99.24239   -2.29838    1.58888     
H           -100.49831  1.7078      -1.10485    
H           -101.61498  -1.74986    1.20242     
C           -100.21878  0.83467     -0.52627    
C           -100.84493  -1.12438    0.76038     
C           -101.22634  0.0         0.0         
C           -89.86771   0.0         0.0         
C           -90.67921   1.18618     0.09385     
C           -90.5685    -1.1912     0.01392     
N           -90.21977   2.44285     0.12506     
N           -92.72277   2.29973     0.30573     
S           -91.52737   3.42475     0.27206     
H           -92.43336   -2.25955    0.08102     
H           -90.0183    -2.12121    -0.09313    
C           -91.98296   -1.27211    0.11607     
C           -92.13302   1.10305     0.19883     
C           -92.80939   -0.16842    0.21237     
C           -97.54081   5.56205     0.93866     
C           -97.50608   6.98029     1.50894     
C           -97.47136   8.39854     2.0792      
C           -97.43664   9.81679     2.64948     
C           -97.40192   11.23504    3.21975     
C           -97.36719   12.65328    3.79001     
C           -97.4224    1.43846     -5.37363    
C           -97.34834   1.48716     -6.90006    
C           -97.27427   1.53585     -8.42649    
C           -97.20021   1.58454     -9.95291    
C           -97.12615   1.63323     -11.47934   
C           -97.05208   1.68193     -13.00577   
C           -81.44017   0.30216     -0.32817    
C           -81.98853   1.38585     -1.0453     
C           -82.31841   -0.61398    0.28756     
C           -84.22035   0.66344     -0.52263    
C           -83.36439   1.57391     -1.14632    
C           -83.68929   -0.43002    0.19056     
C           -84.80712   -1.29188    0.77835     
C           -86.04588   -0.53279    0.30195     
C           -85.68135   0.59986     -0.45351    
C           -86.66776   1.43037     -0.98997    
C           -84.77202   -2.72555    0.20188     
C           -84.73228   -1.34108    2.32077     
H           -84.59723   -2.4219     2.27974     
H           -84.86733   -0.26026    2.3618      
C           -84.65822   -1.38977    3.8472      
H           -84.79673   -3.13261    1.21272     
C           -84.7373    -4.1438     -0.36839    
H           -84.74731   -2.3185     -0.80896    
H           -83.75731   2.41329     -1.71441    
H           -81.32114   2.07376     -1.55608    
H           -81.91141   -1.45683    0.83431     
H           -86.40415   2.29838     -1.58888    
H           -87.66007   -1.7078     1.10485     
H           -88.77674   1.74986     -1.20242    
C           -87.38053   -0.83467    0.52627     
C           -88.00669   1.12438     -0.76038    
C           -88.38809   0.0         0.0         
C           -77.02946   -0.0        0.0         
C           -77.84096   -1.18618    -0.09385    
C           -77.73026   1.1912      -0.01392    
N           -77.38152   -2.44285    -0.12506    
N           -79.88453   -2.29973    -0.30573    
S           -78.68912   -3.42475    -0.27206    
H           -79.59512   2.25955     -0.08102    
H           -77.18006   2.12121     0.09313     
C           -79.14472   1.27211     -0.11607    
C           -79.29477   -1.10305    -0.19883    
C           -79.97114   0.16842     -0.21237    
C           -84.70257   -5.56205    -0.93866    
C           -84.66784   -6.98029    -1.50894    
C           -84.63312   -8.39854    -2.0792     
C           -84.59839   -9.81679    -2.64948    
C           -84.56367   -11.23504   -3.21975    
C           -84.52894   -12.65328   -3.79001    
C           -84.58415   -1.43846    5.37363     
C           -84.51009   -1.48716    6.90006     
C           -84.43603   -1.53585    8.42649     
C           -84.36197   -1.58454    9.95291     
C           -84.2879    -1.63323    11.47934    
C           -84.21384   -1.68193    13.00577    
C           -68.60193   -0.30216    0.32817     
C           -69.15028   -1.38585    1.0453      
C           -69.48017   0.61398     -0.28756    
C           -71.38211   -0.66344    0.52263     
C           -70.52615   -1.57391    1.14632     
C           -70.85105   0.43002     -0.19056    
C           -71.96888   1.29188     -0.77835    
C           -73.20764   0.53279     -0.30195    
C           -72.8431    -0.59986    0.45351     
C           -73.82951   -1.43037    0.98997     
C           -71.93377   2.72555     -0.20188    
C           -71.89404   1.34108     -2.32077    
H           -71.75899   2.4219      -2.27974    
H           -72.02909   0.26026     -2.3618     
C           -71.81997   1.38977     -3.8472     
H           -71.95849   3.13261     -1.21272    
C           -71.89905   4.1438      0.36839     
H           -71.90907   2.3185      0.80896     
H           -70.91906   -2.41329    1.71441     
H           -68.48289   -2.07376    1.55608     
H           -69.07317   1.45683     -0.83431    
H           -73.5659    -2.29838    1.58888     
H           -74.82183   1.7078      -1.10485    
H           -75.93849   -1.74986    1.20242     
C           -74.54229   0.83467     -0.52627    
C           -75.16845   -1.12438    0.76038     
C           -75.54985   0.0         0.0         
C           -64.19122   0.0         0.0         
C           -65.00272   1.18618     0.09385     
C           -64.89202   -1.1912     0.01392     
N           -64.54328   2.44285     0.12506     
N           -67.04629   2.29973     0.30573     
S           -65.85088   3.42475     0.27206     
H           -66.75687   -2.25955    0.08102     
H           -64.34182   -2.12121    -0.09313    
C           -66.30648   -1.27211    0.11607     
C           -66.45653   1.10305     0.19883     
C           -67.1329    -0.16842    0.21237     
C           -71.86432   5.56205     0.93866     
C           -71.82959   6.98029     1.50894     
C           -71.79487   8.39854     2.0792      
C           -71.76015   9.81679     2.64948     
C           -71.72543   11.23504    3.21975     
C           -71.6907    12.65328    3.79001     
C           -71.74591   1.43846     -5.37363    
C           -71.67185   1.48716     -6.90006    
C           -71.59778   1.53585     -8.42649    
C           -71.52372   1.58454     -9.95291    
C           -71.44966   1.63323     -11.47934   
C           -71.3756    1.68193     -13.00577   
C           -55.76368   0.30216     -0.32817    
C           -56.31204   1.38585     -1.0453     
C           -56.64192   -0.61398    0.28756     
C           -58.54386   0.66344     -0.52263    
C           -57.68791   1.57391     -1.14632    
C           -58.0128    -0.43002    0.19056     
C           -59.13063   -1.29188    0.77835     
C           -60.36939   -0.53279    0.30195     
C           -60.00486   0.59986     -0.45351    
C           -60.99127   1.43037     -0.98997    
C           -59.09553   -2.72555    0.20188     
C           -59.05579   -1.34108    2.32077     
H           -58.92074   -2.4219     2.27974     
H           -59.19084   -0.26026    2.3618      
C           -58.98173   -1.38977    3.8472      
H           -59.12024   -3.13261    1.21272     
C           -59.06081   -4.1438     -0.36839    
H           -59.07082   -2.3185     -0.80896    
H           -58.08082   2.41329     -1.71441    
H           -55.64465   2.07376     -1.55608    
H           -56.23492   -1.45683    0.83431     
H           -60.72766   2.29838     -1.58888    
H           -61.98358   -1.7078     1.10485     
H           -63.10025   1.74986     -1.20242    
C           -61.70404   -0.83467    0.52627     
C           -62.3302    1.12438     -0.76038    
C           -62.7116    0.0         0.0         
C           -51.35298   -0.0        0.0         
C           -52.16447   -1.18618    -0.09385    
C           -52.05377   1.1912      -0.01392    
N           -51.70504   -2.44285    -0.12506    
N           -54.20804   -2.29973    -0.30573    
S           -53.01263   -3.42475    -0.27206    
H           -53.91863   2.25955     -0.08102    
H           -51.50357   2.12121     0.09313     
C           -53.46823   1.27211     -0.11607    
C           -53.61829   -1.10305    -0.19883    
C           -54.29465   0.16842     -0.21237    
C           -59.02608   -5.56205    -0.93866    
C           -58.99135   -6.98029    -1.50894    
C           -58.95663   -8.39854    -2.0792     
C           -58.9219    -9.81679    -2.64948    
C           -58.88718   -11.23504   -3.21975    
C           -58.85246   -12.65328   -3.79001    
C           -58.90767   -1.43846    5.37363     
C           -58.8336    -1.48716    6.90006     
C           -58.75954   -1.53585    8.42649     
C           -58.68548   -1.58454    9.95291     
C           -58.61141   -1.63323    11.47934    
C           -58.53735   -1.68193    13.00577    
C           -42.92544   -0.30216    0.32817     
C           -43.4738    -1.38585    1.0453      
C           -43.80368   0.61398     -0.28756    
C           -45.70562   -0.66344    0.52263     
C           -44.84966   -1.57391    1.14632     
C           -45.17456   0.43002     -0.19056    
C           -46.29239   1.29188     -0.77835    
C           -47.53115   0.53279     -0.30195    
C           -47.16662   -0.59986    0.45351     
C           -48.15302   -1.43037    0.98997     
C           -46.25728   2.72555     -0.20188    
C           -46.21755   1.34108     -2.32077    
H           -46.0825    2.4219      -2.27974    
H           -46.3526    0.26026     -2.3618     
C           -46.14349   1.38977     -3.8472     
H           -46.282     3.13261     -1.21272    
C           -46.22256   4.1438      0.36839     
H           -46.23258   2.3185      0.80896     
H           -45.24257   -2.41329    1.71441     
H           -42.8064    -2.07376    1.55608     
H           -43.39668   1.45683     -0.83431    
H           -47.88941   -2.29838    1.58888     
H           -49.14534   1.7078      -1.10485    
H           -50.26201   -1.74986    1.20242     
C           -48.8658    0.83467     -0.52627    
C           -49.49196   -1.12438    0.76038     
C           -49.87336   0.0         0.0         
C           -38.51473   0.0         0.0         
C           -39.32623   1.18618     0.09385     
C           -39.21553   -1.1912     0.01392     
N           -38.86679   2.44285     0.12506     
N           -41.3698    2.29973     0.30573     
S           -40.17439   3.42475     0.27206     
H           -41.08038   -2.25955    0.08102     
H           -38.66533   -2.12121    -0.09313    
C           -40.62999   -1.27211    0.11607     
C           -40.78004   1.10305     0.19883     
C           -41.45641   -0.16842    0.21237     
C           -46.18783   5.56205     0.93866     
C           -46.15311   6.98029     1.50894     
C           -46.11839   8.39854     2.0792      
C           -46.08366   9.81679     2.64948     
C           -46.04894   11.23504    3.21975     
C           -46.01421   12.65328    3.79001     
C           -46.06942   1.43846     -5.37363    
C           -45.99536   1.48716     -6.90006    
C           -45.9213    1.53585     -8.42649    
C           -45.84723   1.58454     -9.95291    
C           -45.77317   1.63323     -11.47934   
C           -45.69911   1.68193     -13.00577   
C           -30.08719   0.30216     -0.32817    
C           -30.63555   1.38585     -1.0453     
C           -30.96544   -0.61398    0.28756     
C           -32.86737   0.66344     -0.52263    
C           -32.01142   1.57391     -1.14632    
C           -32.33632   -0.43002    0.19056     
C           -33.45414   -1.29188    0.77835     
C           -34.6929    -0.53279    0.30195     
C           -34.32837   0.59986     -0.45351    
C           -35.31478   1.43037     -0.98997    
C           -33.41904   -2.72555    0.20188     
C           -33.37931   -1.34108    2.32077     
H           -33.24425   -2.4219     2.27974     
H           -33.51436   -0.26026    2.3618      
C           -33.30524   -1.38977    3.8472      
H           -33.44375   -3.13261    1.21272     
C           -33.38432   -4.1438     -0.36839    
H           -33.39433   -2.3185     -0.80896    
H           -32.40433   2.41329     -1.71441    
H           -29.96816   2.07376     -1.55608    
H           -30.55844   -1.45683    0.83431     
H           -35.05117   2.29838     -1.58888    
H           -36.30709   -1.7078     1.10485     
H           -37.42376   1.74986     -1.20242    
C           -36.02756   -0.83467    0.52627     
C           -36.65371   1.12438     -0.76038    
C           -37.03512   0.0         0.0         
C           -25.67649   -0.0        0.0         
C           -26.48799   -1.18618    -0.09385    
C           -26.37728   1.1912      -0.01392    
N           -26.02855   -2.44285    -0.12506    
N           -28.53155   -2.29973    -0.30573    
S           -27.33615   -3.42475    -0.27206    
H           -28.24214   2.25955     -0.08102    
H           -25.82708   2.12121     0.09313     
C           -27.79174   1.27211     -0.11607    
C           -27.9418    -1.10305    -0.19883    
C           -28.61817   0.16842     -0.21237    
C           -33.34959   -5.56205    -0.93866    
C           -33.31486   -6.98029    -1.50894    
C           -33.28014   -8.39854    -2.0792     
C           -33.24542   -9.81679    -2.64948    
C           -33.2107    -11.23504   -3.21975    
C           -33.17597   -12.65328   -3.79001    
C           -33.23118   -1.43846    5.37363     
C           -33.15712   -1.48716    6.90006     
C           -33.08305   -1.53585    8.42649     
C           -33.00899   -1.58454    9.95291     
C           -32.93493   -1.63323    11.47934    
C           -32.86086   -1.68193    13.00577    
C           -17.24895   -0.30216    0.32817     
C           -17.79731   -1.38585    1.0453      
C           -18.12719   0.61398     -0.28756    
C           -20.02913   -0.66344    0.52263     
C           -19.17317   -1.57391    1.14632     
C           -19.49807   0.43002     -0.19056    
C           -20.6159    1.29188     -0.77835    
C           -21.85466   0.53279     -0.30195    
C           -21.49013   -0.59986    0.45351     
C           -22.47654   -1.43037    0.98997     
C           -20.5808    2.72555     -0.20188    
C           -20.54106   1.34108     -2.32077    
H           -20.40601   2.4219      -2.27974    
H           -20.67611   0.26026     -2.3618     
C           -20.467     1.38977     -3.8472     
H           -20.60551   3.13261     -1.21272    
C           -20.54608   4.1438      0.36839     
H           -20.55609   2.3185      0.80896     
H           -19.56609   -2.41329    1.71441     
H           -17.12992   -2.07376    1.55608     
H           -17.72019   1.45683     -0.83431    
H           -22.21293   -2.29838    1.58888     
H           -23.46885   1.7078      -1.10485    
H           -24.58552   -1.74986    1.20242     
C           -23.18931   0.83467     -0.52627    
C           -23.81547   -1.12438    0.76038     
C           -24.19687   0.0         0.0         
C           -12.83824   0.0         -0.0        
C           -13.64974   1.18618     0.09385     
C           -13.53904   -1.1912     0.01392     
N           -13.1903    2.44285     0.12506     
N           -15.69331   2.29973     0.30573     
S           -14.4979    3.42475     0.27206     
H           -15.4039    -2.25955    0.08102     
H           -12.98884   -2.12121    -0.09313    
C           -14.9535    -1.27211    0.11607     
C           -15.10355   1.10305     0.19883     
C           -15.77992   -0.16842    0.21237     
C           -20.51135   5.56205     0.93866     
C           -20.47662   6.98029     1.50894     
C           -20.4419    8.39854     2.0792      
C           -20.40717   9.81679     2.64948     
C           -20.37245   11.23504    3.21975     
C           -20.33772   12.65328    3.79001     
C           -20.39294   1.43846     -5.37363    
C           -20.31887   1.48716     -6.90006    
C           -20.24481   1.53585     -8.42649    
C           -20.17075   1.58454     -9.95291    
C           -20.09668   1.63323     -11.47934   
C           -20.02262   1.68193     -13.00577   
C           -4.41071    0.30216     -0.32817    
C           -4.95906    1.38585     -1.0453     
C           -5.28895    -0.61398    0.28756     
C           -7.19089    0.66344     -0.52263    
C           -6.33493    1.57391     -1.14632    
C           -6.65983    -0.43002    0.19056     
C           -7.77766    -1.29188    0.77835     
C           -9.01642    -0.53279    0.30195     
C           -8.65188    0.59986     -0.45351    
C           -9.63829    1.43037     -0.98997    
C           -7.74255    -2.72555    0.20188     
C           -7.70282    -1.34108    2.32077     
H           -7.56777    -2.4219     2.27974     
H           -7.83787    -0.26026    2.3618      
C           -7.62875    -1.38977    3.8472      
H           -7.76727    -3.13261    1.21272     
C           -7.70783    -4.1438     -0.36839    
H           -7.71785    -2.3185     -0.80896    
H           -6.72784    2.41329     -1.71441    
H           -4.29167    2.07376     -1.55608    
H           -4.88195    -1.45683    0.83431     
H           -9.37468    2.29838     -1.58888    
H           -10.63061   -1.7078     1.10485     
H           -11.74727   1.74986     -1.20242    
C           -10.35107   -0.83467    0.52627     
C           -10.97723   1.12438     -0.76038    
C           -11.35863   0.0         -0.0        
C           0.0         0.0         0.0         
C           -0.8115     -1.18618    -0.09385    
C           -0.7008     1.1912      -0.01392    
N           -0.35206    -2.44285    -0.12506    
N           -2.85507    -2.29973    -0.30573    
S           -1.65966    -3.42475    -0.27206    
H           -2.56565    2.25955     -0.08102    
H           -0.1506     2.12121     0.09313     
C           -2.11526    1.27211     -0.11607    
C           -2.26531    -1.10305    -0.19883    
C           -2.94168    0.16842     -0.21237    
C           -7.6731     -5.56205    -0.93866    
C           -7.63837    -6.98029    -1.50894    
C           -7.60366    -8.39854    -2.0792     
C           -7.56893    -9.81679    -2.64948    
C           -7.53421    -11.23504   -3.21975    
C           -7.49948    -12.65328   -3.79001    
C           -7.55469    -1.43846    5.37363     
C           -7.48063    -1.48716    6.90006     
C           -7.40656    -1.53585    8.42649     
C           -7.3325     -1.58454    9.95291     
C           -7.25844    -1.63323    11.47934    
C           -7.18438    -1.68193    13.00577    
H           -127.99282  0.0         0.0         
H           1.09        0.0         0.0         
