119

C           -4.41664    -0.32648    -0.00064    
C           -5.19492    -1.45819    -0.00273    
S           -5.41734    1.14321     0.00205     
C           -11.30623   -1.33294    -0.0025     
C           -10.68177   -0.06481    -0.00017    
C           -11.43892   1.11435     0.002       
C           -12.8238    1.00608     0.00181     
C           -13.4481    -0.26192    -0.00052    
C           -12.69099   -1.44113    -0.0027     
C           -13.8625    2.12757     0.00388     
C           -15.16632   1.32891     0.00241     
C           -14.89827   -0.0678     -0.00016    
C           -10.2674    -2.45432    -0.00456    
C           -8.96361    -1.65555    -0.00309    
C           -9.23178    -0.25895    -0.00053    
C           -16.46297   1.80178     0.00329     
C           -17.52845   0.87348     0.00159     
C           -17.23792   -0.51726    -0.00097    
C           -15.9297    -1.00457    -0.00187    
C           -7.66697    -2.12846    -0.00397    
C           -6.60108    -1.20032    -0.00225    
C           -6.8921     0.19074     0.0003      
C           -8.20004    0.67783     0.00119     
C           -13.74095   3.00866     -1.25993    
C           -13.74094   3.00399     1.27093     
C           -10.38895   -3.33073    -1.2716     
C           -10.38895   -3.33539    1.25924     
H           -13.17758   -2.41398    -0.00448    
H           -10.95235   2.08717     0.00379     
H           -7.45014    -3.19405    -0.00592    
H           -8.40289    1.74503     0.00316     
H           -16.67992   2.86732     0.00526     
H           -15.7268    -2.07175    -0.00384    
H           -13.42043   3.84856     -0.64354    
H           -14.06147   2.16875     -1.87632    
C           -13.62069   3.88039     -2.51031    
H           -12.90527   3.53947     0.82035     
H           -14.57661   2.46851     1.7215      
C           -13.62066   3.87111     2.52452     
H           -9.55328    -2.80157    1.71177     
H           -11.22462   -3.86921    0.8067      
C           -10.50921   -4.20711    2.50963     
H           -10.06844   -2.48855    -1.88488    
H           -10.70947   -4.17291    -0.65832    
C           -10.50922   -4.19784    -2.52519    
H           -19.36      2.12751     0.00391     
H           -4.77061    -2.45455    -0.00456    
S           -18.71279   -1.46949    -0.00271    
C           -18.93539   1.13112     0.00207     
C           -19.7122    -0.0        -0.0        
C           0.0         0.0         0.0         
C           -0.67264    -1.27681    -0.00232    
C           -0.86396    1.08373     0.00195     
N           -0.16276    -2.49472    -0.00452    
N           -2.42987    -2.66784    -0.00486    
O           -1.23858    -3.33591    -0.00605    
H           -2.8415     1.90485     0.0034      
H           -0.44979    2.0876      0.00376     
C           -2.27968    0.97548     0.00174     
C           -2.11071    -1.38663    -0.00254    
C           -2.96901    -0.22674    -0.00045    
C           -13.50044   4.75212     -3.7607     
C           -13.38018   5.62385     -5.01108    
C           -13.25992   6.49558     -6.26147    
C           -13.13965   7.36731     -7.51186    
C           -13.0194    8.23904     -8.76225    
C           -12.89914   9.11077     -10.01263   
C           -12.77888   9.9825      -11.26302   
C           -12.65862   10.85423    -12.5134    
C           -12.53837   11.72596    -13.76379   
C           -12.4181    12.59769    -15.01417   
C           -12.29785   13.46942    -16.26456   
C           -12.17759   14.34116    -17.51494   
C           -12.05733   15.21289    -18.76533   
C           -11.93707   16.08462    -20.01571   
C           -10.62949   -5.06495    -3.77879    
C           -10.74974   -5.93206    -5.03238    
C           -10.87001   -6.79917    -6.28598    
C           -10.99027   -7.66627    -7.53958    
C           -11.11054   -8.53338    -8.79317    
C           -11.2308    -9.40049    -10.04676   
C           -11.35106   -10.26761   -11.30035   
C           -11.47133   -11.13472   -12.55395   
C           -11.59159   -12.00182   -13.80755   
C           -11.71185   -12.86893   -15.06114   
C           -11.83212   -13.73604   -16.31473   
C           -11.95239   -14.60314   -17.56833   
C           -12.07265   -15.47026   -18.82193   
C           -12.19291   -16.33736   -20.07552   
C           -13.5004    4.73823     3.7781      
C           -13.38012   5.60535     5.03169     
C           -13.25985   6.47246     6.28528     
C           -13.13958   7.33958     7.53887     
C           -13.01931   8.2067      8.79246     
C           -12.89904   9.07382     10.04603    
C           -12.77877   9.94094     11.29963    
C           -12.6585    10.80805    12.55321    
C           -12.53822   11.67517    13.80681    
C           -12.41796   12.54229    15.06039    
C           -12.29768   13.40941    16.31398    
C           -12.17741   14.27652    17.56756    
C           -12.05714   15.14364    18.82116    
C           -11.93687   16.01076    20.07474    
C           -10.62947   -5.07884    3.76002     
C           -10.74973   -5.95056    5.01041     
C           -10.86999   -6.82228    6.2608      
C           -10.99025   -7.694      7.51119     
C           -11.11052   -8.56572    8.76158     
C           -11.23078   -9.43745    10.01197    
C           -11.35104   -10.30917   11.26237    
C           -11.4713    -11.18089   12.51276    
C           -11.59156   -12.05261   13.76315    
C           -11.71182   -12.92434   15.01354    
C           -11.83208   -13.79606   16.26393    
C           -11.95234   -14.66778   17.51432    
C           -12.0726    -15.5395    18.76471    
C           -12.19286   -16.41123   20.01511    
H           -20.8022    -0.0        -0.0        
H           1.09        0.0         0.0         
