81

C           -3.5163     -0.52359    0.00455     
C           -4.46445    -1.51579    0.01314     
S           -4.20388    1.11093     -0.00957    
C           -5.8173     0.42865     -0.00367    
C           -5.79888    -1.00861    0.00875     
C           -7.02518    -1.7027     0.01473     
C           -8.24498    -0.98069    0.00849     
C           -8.24635    0.45492     -0.00388    
C           -7.00584    1.14522     -0.00985    
C           -9.48566    -1.67354    0.01445     
C           -10.6725    -0.95485    0.00824     
C           -10.69202   0.48521     -0.00418    
C           -9.46609    1.18004     -0.01013    
C           -9.44894    2.66273     -0.02285    
N           -8.18732    3.28518     -0.02825    
C           -6.96822    2.61667     -0.02262    
C           -7.04638    -3.18324    0.0275      
N           -8.30082    -3.81033    0.03281     
C           -9.52734    -3.14722    0.02716     
O           -10.46587   3.34786     -0.02909    
O           -5.91213    3.24461     -0.02812    
O           -6.03795    -3.88202    0.03369     
O           -10.58983   -3.76369    0.03254     
H           -12.24923   2.04653     -0.01763    
H           -4.24549    -2.5727     0.02227     
C           -8.12244    4.75184     -0.04099    
C           -8.29366    -5.27814    0.04547     
H           -7.77951    4.72769     -1.07536    
C           -8.05487    6.27929     -0.05425    
H           -8.46537    4.776       0.99338     
H           -7.90298    -5.28501    -0.97209    
H           -8.68435    -5.27126    1.06303     
C           -8.28621    -6.80706    0.05866     
S           -12.28708   -1.63404    0.01405     
C           -12.0276    0.99058     -0.00855    
C           -12.97527   0.0         -0.0        
C           0.0         0.0         0.0         
C           0.04486     -1.38206    0.01196     
O           -1.30678    0.40743     -0.00352    
H           0.94019     -1.9873     0.01718     
H           -1.6341     -2.85972    0.02478     
C           -1.29119    -1.83493    0.01589     
C           -2.09579    -0.71008    0.00616     
C           -7.98731    7.80674     -0.06751    
C           -7.91974    9.33419     -0.08078    
C           -7.85217    10.86164    -0.09405    
C           -7.7846     12.38909    -0.10731    
C           -7.71703    13.91654    -0.12058    
C           -7.64947    15.44399    -0.13384    
C           -7.5819     16.97144    -0.14711    
C           -7.51433    18.49888    -0.16038    
C           -7.44676    20.02633    -0.17364    
C           -7.3792     21.55378    -0.18691    
C           -7.57383    6.24541     -1.50521    
C           -7.09277    6.21153     -2.95617    
C           -6.61172    6.17765     -4.40713    
C           -6.13068    6.14377     -5.8581     
C           -5.64963    6.10989     -7.30905    
C           -5.16857    6.07601     -8.76001    
C           -4.68753    6.04213     -10.21097   
C           -4.20648    6.00825     -11.66193   
C           -8.27877    -8.33599    0.07184     
C           -8.27132    -9.86491    0.08503     
C           -8.26387    -11.39384   0.09821     
C           -8.25642    -12.92276   0.1114      
C           -8.24897    -14.45169   0.12458     
C           -8.24152    -15.98061   0.13777     
C           -8.23407    -17.50954   0.15095     
C           -8.22662    -19.03846   0.16414     
C           -8.21917    -20.56739   0.17732     
C           -8.21172    -22.09631   0.19051     
C           -8.83424    -6.79742    1.48604     
C           -9.38227    -6.78778    2.91342     
C           -9.9303     -6.77814    4.3408      
C           -10.47833   -6.7685     5.76817     
C           -11.02636   -6.75886    7.19555     
C           -11.57438   -6.74923    8.62293     
C           -12.12241   -6.73959    10.05031    
C           -12.67044   -6.72995    11.47769    
H           -14.06527   0.0         -0.0        
H           1.09        0.0         0.0         
