772

C           -140.74621  -0.39232    -0.00183    
C           -141.54942  -1.55624    -0.00657    
C           -141.43721  0.83335     0.00308     
C           -142.81815  0.89637     0.00325     
C           -143.61675  -0.27812    -0.00156    
C           -142.93818  -1.50874    -0.00647    
N           -143.61682  2.03304     0.00784     
C           -144.95423  1.67524     0.0064      
C           -145.02335  0.15414     0.00013     
O           -145.85314  2.50373     0.00959     
C           -143.18646  3.42281     0.0134      
C           -146.21624  -0.54633    -0.00283    
C           -147.623    -0.11404    -0.00083    
C           -148.42132  -1.28834    -0.00595    
N           -147.6228   -2.42529    -0.01106    
C           -146.28553  -2.06767    -0.00956    
C           -148.30173  1.11626     0.00476     
O           -145.38651  -2.89614    -0.01338    
C           -148.05347  -3.81492    -0.01723    
H           -143.49857  -2.4283     -0.01024    
F           -140.73435  1.99861     0.00784     
H           -141.06916  -2.52387    -0.01043    
F           -150.50625  -2.39046    -0.01062    
H           -147.74169  2.03603     0.00879     
H           -150.1717   2.13087     0.00949     
H           -142.75661  3.28573     1.00565     
H           -143.61629  3.55989     -0.97884    
C           -142.73416  4.88337     0.01924     
H           -148.48313  -3.67736    -1.00948    
C           -148.50609  -5.27538    -0.02371    
H           -147.62381  -3.95249    0.97503     
C           -149.69096  1.16344     0.00512     
C           -149.80251  -1.22479    -0.00553    
C           -150.49309  0.0         -0.0        
C           -136.7573   0.0         -0.0        
C           -137.10429  -1.33508    -0.00545    
S           -138.23984  0.95142     0.00378     
F           -138.92654  -2.85896    -0.01177    
F           -136.24653  -2.3677     -0.00962    
C           -138.49074  -1.58921    -0.00658    
C           -139.28879  -0.46399    -0.00204    
C           -142.28187  6.34393     0.0251      
C           -141.82959  7.8045      0.03094     
C           -141.37729  9.26506     0.03679     
C           -140.925    10.72562    0.04263     
C           -140.47271  12.18618    0.04848     
C           -140.02042  13.64674    0.05432     
C           -139.56813  15.1073     0.06017     
C           -139.11584  16.56787    0.06602     
C           -138.66354  18.02843    0.07187     
C           -138.21126  19.48899    0.07771     
C           -142.13121  4.69109     1.41112     
C           -141.52825  4.4988      2.80299     
C           -140.92529  4.30651     4.19486     
C           -140.32234  4.11422     5.58674     
C           -139.71938  3.92194     6.97861     
C           -139.11643  3.72964     8.37048     
C           -138.51347  3.53736     9.76236     
C           -137.91052  3.34507     11.15423    
C           -148.9587   -6.73584    -0.0302     
C           -149.41132  -8.1963     -0.03669    
C           -149.86394  -9.65675    -0.04318    
C           -150.31656  -11.11721   -0.04966    
C           -150.76917  -12.57767   -0.05615    
C           -151.22179  -14.03813   -0.06264    
C           -151.67441  -15.49858   -0.06912    
C           -152.12702  -16.95904   -0.07561    
C           -152.57964  -18.4195    -0.0821     
C           -153.03226  -19.87996   -0.08859    
C           -149.10879  -5.08241    -1.4156     
C           -149.71149  -4.88944    -2.80749    
C           -150.31419  -4.69648    -4.19938    
C           -150.91689  -4.50351    -5.59127    
C           -151.51959  -4.31054    -6.98316    
C           -152.12229  -4.11757    -8.37505    
C           -152.72499  -3.9246     -9.76694    
C           -153.3277   -3.73163    -11.15883   
C           -125.55095  -0.39232    -0.00054    
C           -126.35416  -1.55625    -0.00146    
C           -126.24196  0.83335     0.00034     
C           -127.62289  0.89638     0.00031     
C           -128.42149  -0.27812    -0.00065    
C           -127.74292  -1.50876    -0.00151    
N           -128.42157  2.03306     0.00116     
C           -129.75897  1.67525     0.0009      
C           -129.82809  0.15414     -0.00037    
O           -130.65789  2.50375     0.00137     
C           -127.9912   3.42284     0.00216     
C           -131.02098  -0.54634    -0.00104    
C           -132.42775  -0.11404    -0.00045    
C           -133.22607  -1.28835    -0.00171    
N           -132.42755  -2.42531    -0.00309    
C           -131.09027  -2.06769    -0.00277    
C           -133.10648  1.11627     0.00109     
O           -130.19126  -2.89617    -0.00386    
C           -132.85821  -3.81496    -0.00469    
H           -128.30332  -2.42832    -0.00226    
F           -125.5391   1.99863     0.00128     
H           -125.87391  -2.52389    -0.00214    
F           -135.31099  -2.39048    -0.00277    
H           -132.54643  2.03605     0.0021      
H           -134.97645  2.13088     0.00249     
H           -127.56136  3.28902     0.99484     
H           -128.42104  3.55665     -0.99053    
C           -127.53891  4.88341     0.0032      
H           -133.28787  -3.68066    -0.99739    
C           -133.31083  -5.27543    -0.00638    
H           -132.42856  -3.94926    0.98801     
C           -134.49571  1.16345     0.0013      
C           -134.60726  -1.2248     -0.00151    
C           -135.29783  0.0         -0.0        
C           -121.56205  0.0         -0.0        
C           -121.90903  -1.33509    -0.00106    
S           -123.04459  0.95143     0.00066     
F           -123.73128  -2.85898    -0.00238    
F           -121.05127  -2.36772    -0.00184    
C           -123.29548  -1.58922    -0.00136    
C           -124.09354  -0.46399    -0.00051    
C           -127.08662  6.34398     0.00425     
C           -126.63433  7.80456     0.00529     
C           -126.18203  9.26513     0.00634     
C           -125.72975  10.7257     0.00738     
C           -125.27746  12.18627    0.00844     
C           -124.82516  13.64685    0.00948     
C           -124.37287  15.10742    0.01053     
C           -123.92059  16.56799    0.01157     
C           -123.46829  18.02856    0.01262     
C           -123.016    19.48914    0.01367     
C           -126.93596  4.6957      1.3957      
C           -126.333    4.50798     2.78819     
C           -125.73004  4.32027     4.18069     
C           -125.12709  4.13256     5.57319     
C           -124.52413  3.94485     6.96568     
C           -123.92117  3.75713     8.35818     
C           -123.31822  3.56942     9.75068     
C           -122.71526  3.3817      11.14318    
C           -133.76345  -6.7359     -0.00807    
C           -134.21607  -8.19637    -0.00976    
C           -134.66868  -9.65684    -0.01144    
C           -135.1213   -11.11731   -0.01313    
C           -135.57392  -12.57779   -0.01482    
C           -136.02653  -14.03826   -0.01651    
C           -136.47915  -15.49873   -0.01819    
C           -136.93177  -16.9592    -0.01988    
C           -137.38439  -18.41967   -0.02157    
C           -137.837    -19.88014   -0.02326    
C           -133.91353  -5.08704    -1.3989     
C           -134.51623  -4.89864    -2.79141    
C           -135.11893  -4.71025    -4.18393    
C           -135.72164  -4.52186    -5.57644    
C           -136.32434  -4.33346    -6.96896    
C           -136.92704  -4.14507    -8.36147    
C           -137.52974  -3.95668    -9.75399    
C           -138.13244  -3.76828    -11.14651   
C           -110.3557   -0.39232    -0.00054    
C           -111.1589   -1.55625    -0.00146    
C           -111.0467   0.83335     0.00034     
C           -112.42764  0.89638     0.00031     
C           -113.22624  -0.27812    -0.00065    
C           -112.54767  -1.50876    -0.00151    
N           -113.22631  2.03306     0.00116     
C           -114.56372  1.67525     0.0009      
C           -114.63284  0.15414     -0.00037    
O           -115.46263  2.50375     0.00137     
C           -112.79595  3.42284     0.00216     
C           -115.82573  -0.54634    -0.00104    
C           -117.23249  -0.11404    -0.00045    
C           -118.03081  -1.28835    -0.00171    
N           -117.23229  -2.42531    -0.00309    
C           -115.89502  -2.06769    -0.00277    
C           -117.91122  1.11627     0.00109     
O           -114.996    -2.89617    -0.00386    
C           -117.66296  -3.81496    -0.00469    
H           -113.10806  -2.42832    -0.00226    
F           -110.34384  1.99863     0.00128     
H           -110.67865  -2.52389    -0.00214    
F           -120.11574  -2.39048    -0.00277    
H           -117.35118  2.03605     0.0021      
H           -119.78119  2.13088     0.00249     
H           -112.3661   3.28902     0.99484     
H           -113.22578  3.55665     -0.99053    
C           -112.34365  4.88341     0.0032      
H           -118.09261  -3.68066    -0.99739    
C           -118.11558  -5.27543    -0.00638    
H           -117.2333   -3.94926    0.98801     
C           -119.30045  1.16345     0.0013      
C           -119.412    -1.2248     -0.00151    
C           -120.10258  0.0         -0.0        
C           -106.36679  0.0         -0.0        
C           -106.71378  -1.33509    -0.00106    
S           -107.84933  0.95143     0.00066     
F           -108.53603  -2.85898    -0.00238    
F           -105.85602  -2.36772    -0.00184    
C           -108.10023  -1.58922    -0.00136    
C           -108.89828  -0.46399    -0.00051    
C           -111.89136  6.34398     0.00425     
C           -111.43908  7.80456     0.00529     
C           -110.98678  9.26513     0.00634     
C           -110.53449  10.7257     0.00738     
C           -110.0822   12.18627    0.00844     
C           -109.62991  13.64685    0.00948     
C           -109.17762  15.10742    0.01053     
C           -108.72533  16.56799    0.01157     
C           -108.27303  18.02856    0.01262     
C           -107.82075  19.48914    0.01367     
C           -111.7407   4.6957      1.3957      
C           -111.13774  4.50798     2.78819     
C           -110.53478  4.32027     4.18069     
C           -109.93183  4.13256     5.57319     
C           -109.32887  3.94485     6.96568     
C           -108.72591  3.75713     8.35818     
C           -108.12296  3.56942     9.75068     
C           -107.52     3.3817      11.14318    
C           -118.56819  -6.7359     -0.00807    
C           -119.02081  -8.19637    -0.00976    
C           -119.47343  -9.65684    -0.01144    
C           -119.92604  -11.11731   -0.01313    
C           -120.37866  -12.57779   -0.01482    
C           -120.83128  -14.03826   -0.01651    
C           -121.2839   -15.49873   -0.01819    
C           -121.73651  -16.9592    -0.01988    
C           -122.18913  -18.41967   -0.02157    
C           -122.64175  -19.88014   -0.02326    
C           -118.71828  -5.08704    -1.3989     
C           -119.32098  -4.89864    -2.79141    
C           -119.92368  -4.71025    -4.18393    
C           -120.52638  -4.52186    -5.57644    
C           -121.12908  -4.33346    -6.96896    
C           -121.73178  -4.14507    -8.36147    
C           -122.33448  -3.95668    -9.75399    
C           -122.93718  -3.76828    -11.14651   
C           -95.16044   -0.39232    -0.00054    
C           -95.96365   -1.55625    -0.00146    
C           -95.85145   0.83335     0.00034     
C           -97.23238   0.89638     0.00031     
C           -98.03098   -0.27812    -0.00065    
C           -97.35241   -1.50876    -0.00151    
N           -98.03105   2.03306     0.00116     
C           -99.36846   1.67525     0.0009      
C           -99.43758   0.15414     -0.00037    
O           -100.26738  2.50375     0.00137     
C           -97.60069   3.42284     0.00216     
C           -100.63047  -0.54634    -0.00104    
C           -102.03723  -0.11404    -0.00045    
C           -102.83555  -1.28835    -0.00171    
N           -102.03703  -2.42531    -0.00309    
C           -100.69976  -2.06769    -0.00277    
C           -102.71596  1.11627     0.00109     
O           -99.80074   -2.89617    -0.00386    
C           -102.4677   -3.81496    -0.00469    
H           -97.91281   -2.42832    -0.00226    
F           -95.14859   1.99863     0.00128     
H           -95.4834    -2.52389    -0.00214    
F           -104.92048  -2.39048    -0.00277    
H           -102.15592  2.03605     0.0021      
H           -104.58593  2.13088     0.00249     
H           -97.17085   3.28902     0.99484     
H           -98.03053   3.55665     -0.99053    
C           -97.1484    4.88341     0.0032      
H           -102.89736  -3.68066    -0.99739    
C           -102.92032  -5.27543    -0.00638    
H           -102.03805  -3.94926    0.98801     
C           -104.10519  1.16345     0.0013      
C           -104.21674  -1.2248     -0.00151    
C           -104.90732  0.0         -0.0        
C           -91.17154   0.0         -0.0        
C           -91.51852   -1.33509    -0.00106    
S           -92.65408   0.95143     0.00066     
F           -93.34077   -2.85898    -0.00238    
F           -90.66076   -2.36772    -0.00184    
C           -92.90497   -1.58922    -0.00136    
C           -93.70302   -0.46399    -0.00051    
C           -96.69611   6.34398     0.00425     
C           -96.24382   7.80456     0.00529     
C           -95.79152   9.26513     0.00634     
C           -95.33924   10.7257     0.00738     
C           -94.88695   12.18627    0.00844     
C           -94.43465   13.64685    0.00948     
C           -93.98236   15.10742    0.01053     
C           -93.53008   16.56799    0.01157     
C           -93.07778   18.02856    0.01262     
C           -92.62549   19.48914    0.01367     
C           -96.54544   4.6957      1.3957      
C           -95.94249   4.50798     2.78819     
C           -95.33953   4.32027     4.18069     
C           -94.73658   4.13256     5.57319     
C           -94.13362   3.94485     6.96568     
C           -93.53066   3.75713     8.35818     
C           -92.92771   3.56942     9.75068     
C           -92.32475   3.3817      11.14318    
C           -103.37294  -6.7359     -0.00807    
C           -103.82555  -8.19637    -0.00976    
C           -104.27817  -9.65684    -0.01144    
C           -104.73079  -11.11731   -0.01313    
C           -105.1834   -12.57779   -0.01482    
C           -105.63602  -14.03826   -0.01651    
C           -106.08864  -15.49873   -0.01819    
C           -106.54126  -16.9592    -0.01988    
C           -106.99387  -18.41967   -0.02157    
C           -107.44649  -19.88014   -0.02326    
C           -103.52302  -5.08704    -1.3989     
C           -104.12572  -4.89864    -2.79141    
C           -104.72842  -4.71025    -4.18393    
C           -105.33112  -4.52186    -5.57644    
C           -105.93382  -4.33346    -6.96896    
C           -106.53653  -4.14507    -8.36147    
C           -107.13923  -3.95668    -9.75399    
C           -107.74193  -3.76828    -11.14651   
C           -79.96518   -0.39232    -0.00054    
C           -80.76839   -1.55625    -0.00146    
C           -80.65619   0.83335     0.00034     
C           -82.03713   0.89638     0.00031     
C           -82.83573   -0.27812    -0.00065    
C           -82.15715   -1.50876    -0.00151    
N           -82.8358    2.03306     0.00116     
C           -84.1732    1.67525     0.0009      
C           -84.24233   0.15414     -0.00037    
O           -85.07212   2.50375     0.00137     
C           -82.40543   3.42284     0.00216     
C           -85.43521   -0.54634    -0.00104    
C           -86.84198   -0.11404    -0.00045    
C           -87.6403    -1.28835    -0.00171    
N           -86.84178   -2.42531    -0.00309    
C           -85.50451   -2.06769    -0.00277    
C           -87.52071   1.11627     0.00109     
O           -84.60549   -2.89617    -0.00386    
C           -87.27245   -3.81496    -0.00469    
H           -82.71755   -2.42832    -0.00226    
F           -79.95333   1.99863     0.00128     
H           -80.28814   -2.52389    -0.00214    
F           -89.72523   -2.39048    -0.00277    
H           -86.96066   2.03605     0.0021      
H           -89.39068   2.13088     0.00249     
H           -81.97559   3.28902     0.99484     
H           -82.83527   3.55665     -0.99053    
C           -81.95314   4.88341     0.0032      
H           -87.7021    -3.68066    -0.99739    
C           -87.72506   -5.27543    -0.00638    
H           -86.84279   -3.94926    0.98801     
C           -88.90994   1.16345     0.0013      
C           -89.02149   -1.2248     -0.00151    
C           -89.71206   0.0         -0.0        
C           -75.97628   0.0         -0.0        
C           -76.32326   -1.33509    -0.00106    
S           -77.45882   0.95143     0.00066     
F           -78.14552   -2.85898    -0.00238    
F           -75.46551   -2.36772    -0.00184    
C           -77.70971   -1.58922    -0.00136    
C           -78.50777   -0.46399    -0.00051    
C           -81.50085   6.34398     0.00425     
C           -81.04856   7.80456     0.00529     
C           -80.59627   9.26513     0.00634     
C           -80.14398   10.7257     0.00738     
C           -79.69169   12.18627    0.00844     
C           -79.2394    13.64685    0.00948     
C           -78.78711   15.10742    0.01053     
C           -78.33482   16.56799    0.01157     
C           -77.88252   18.02856    0.01262     
C           -77.43024   19.48914    0.01367     
C           -81.35019   4.6957      1.3957      
C           -80.74723   4.50798     2.78819     
C           -80.14427   4.32027     4.18069     
C           -79.54132   4.13256     5.57319     
C           -78.93836   3.94485     6.96568     
C           -78.3354    3.75713     8.35818     
C           -77.73245   3.56942     9.75068     
C           -77.12949   3.3817      11.14318    
C           -88.17768   -6.7359     -0.00807    
C           -88.6303    -8.19637    -0.00976    
C           -89.08291   -9.65684    -0.01144    
C           -89.53553   -11.11731   -0.01313    
C           -89.98815   -12.57779   -0.01482    
C           -90.44077   -14.03826   -0.01651    
C           -90.89338   -15.49873   -0.01819    
C           -91.346     -16.9592    -0.01988    
C           -91.79862   -18.41967   -0.02157    
C           -92.25123   -19.88014   -0.02326    
C           -88.32776   -5.08704    -1.3989     
C           -88.93047   -4.89864    -2.79141    
C           -89.53317   -4.71025    -4.18393    
C           -90.13587   -4.52186    -5.57644    
C           -90.73857   -4.33346    -6.96896    
C           -91.34127   -4.14507    -8.36147    
C           -91.94397   -3.95668    -9.75399    
C           -92.54667   -3.76828    -11.14651   
C           -64.76993   -0.39232    -0.00054    
C           -65.57314   -1.55625    -0.00146    
C           -65.46093   0.83335     0.00034     
C           -66.84187   0.89638     0.00031     
C           -67.64047   -0.27812    -0.00065    
C           -66.9619    -1.50876    -0.00151    
N           -67.64054   2.03306     0.00116     
C           -68.97795   1.67525     0.0009      
C           -69.04707   0.15414     -0.00037    
O           -69.87686   2.50375     0.00137     
C           -67.21018   3.42284     0.00216     
C           -70.23996   -0.54634    -0.00104    
C           -71.64672   -0.11404    -0.00045    
C           -72.44504   -1.28835    -0.00171    
N           -71.64652   -2.42531    -0.00309    
C           -70.30925   -2.06769    -0.00277    
C           -72.32545   1.11627     0.00109     
O           -69.41023   -2.89617    -0.00386    
C           -72.07719   -3.81496    -0.00469    
H           -67.52229   -2.42832    -0.00226    
F           -64.75807   1.99863     0.00128     
H           -65.09288   -2.52389    -0.00214    
F           -74.52997   -2.39048    -0.00277    
H           -71.76541   2.03605     0.0021      
H           -74.19542   2.13088     0.00249     
H           -66.78033   3.28902     0.99484     
H           -67.64001   3.55665     -0.99053    
C           -66.75788   4.88341     0.0032      
H           -72.50685   -3.68066    -0.99739    
C           -72.52981   -5.27543    -0.00638    
H           -71.64753   -3.94926    0.98801     
C           -73.71468   1.16345     0.0013      
C           -73.82623   -1.2248     -0.00151    
C           -74.51681   0.0         -0.0        
C           -60.78102   0.0         -0.0        
C           -61.12801   -1.33509    -0.00106    
S           -62.26357   0.95143     0.00066     
F           -62.95026   -2.85898    -0.00238    
F           -60.27025   -2.36772    -0.00184    
C           -62.51446   -1.58922    -0.00136    
C           -63.31251   -0.46399    -0.00051    
C           -66.30559   6.34398     0.00425     
C           -65.85331   7.80456     0.00529     
C           -65.40101   9.26513     0.00634     
C           -64.94872   10.7257     0.00738     
C           -64.49643   12.18627    0.00844     
C           -64.04414   13.64685    0.00948     
C           -63.59185   15.10742    0.01053     
C           -63.13956   16.56799    0.01157     
C           -62.68727   18.02856    0.01262     
C           -62.23498   19.48914    0.01367     
C           -66.15493   4.6957      1.3957      
C           -65.55197   4.50798     2.78819     
C           -64.94901   4.32027     4.18069     
C           -64.34607   4.13256     5.57319     
C           -63.7431    3.94485     6.96568     
C           -63.14015   3.75713     8.35818     
C           -62.53719   3.56942     9.75068     
C           -61.93424   3.3817      11.14318    
C           -72.98242   -6.7359     -0.00807    
C           -73.43504   -8.19637    -0.00976    
C           -73.88766   -9.65684    -0.01144    
C           -74.34028   -11.11731   -0.01313    
C           -74.79289   -12.57779   -0.01482    
C           -75.24551   -14.03826   -0.01651    
C           -75.69813   -15.49873   -0.01819    
C           -76.15074   -16.9592    -0.01988    
C           -76.60336   -18.41967   -0.02157    
C           -77.05598   -19.88014   -0.02326    
C           -73.13251   -5.08704    -1.3989     
C           -73.73521   -4.89864    -2.79141    
C           -74.33791   -4.71025    -4.18393    
C           -74.94061   -4.52186    -5.57644    
C           -75.54331   -4.33346    -6.96896    
C           -76.14601   -4.14507    -8.36147    
C           -76.74871   -3.95668    -9.75399    
C           -77.35142   -3.76828    -11.14651   
C           -49.57467   -0.39232    -0.00054    
C           -50.37788   -1.55625    -0.00146    
C           -50.26568   0.83335     0.00034     
C           -51.64661   0.89638     0.00031     
C           -52.44522   -0.27812    -0.00065    
C           -51.76664   -1.50876    -0.00151    
N           -52.44529   2.03306     0.00116     
C           -53.78269   1.67525     0.0009      
C           -53.85182   0.15414     -0.00037    
O           -54.68161   2.50375     0.00137     
C           -52.01492   3.42284     0.00216     
C           -55.0447    -0.54634    -0.00104    
C           -56.45147   -0.11404    -0.00045    
C           -57.24979   -1.28835    -0.00171    
N           -56.45127   -2.42531    -0.00309    
C           -55.11399   -2.06769    -0.00277    
C           -57.1302    1.11627     0.00109     
O           -54.21498   -2.89617    -0.00386    
C           -56.88193   -3.81496    -0.00469    
H           -52.32704   -2.42832    -0.00226    
F           -49.56282   1.99863     0.00128     
H           -49.89763   -2.52389    -0.00214    
F           -59.33471   -2.39048    -0.00277    
H           -56.57015   2.03605     0.0021      
H           -59.00017   2.13088     0.00249     
H           -51.58508   3.28902     0.99484     
H           -52.44476   3.55665     -0.99053    
C           -51.56263   4.88341     0.0032      
H           -57.31159   -3.68066    -0.99739    
C           -57.33455   -5.27543    -0.00638    
H           -56.45228   -3.94926    0.98801     
C           -58.51943   1.16345     0.0013      
C           -58.63098   -1.2248     -0.00151    
C           -59.32155   0.0         -0.0        
C           -45.58577   0.0         -0.0        
C           -45.93275   -1.33509    -0.00106    
S           -47.06831   0.95143     0.00066     
F           -47.75501   -2.85898    -0.00238    
F           -45.07499   -2.36772    -0.00184    
C           -47.3192    -1.58922    -0.00136    
C           -48.11726   -0.46399    -0.00051    
C           -51.11034   6.34398     0.00425     
C           -50.65805   7.80456     0.00529     
C           -50.20575   9.26513     0.00634     
C           -49.75347   10.7257     0.00738     
C           -49.30118   12.18627    0.00844     
C           -48.84888   13.64685    0.00948     
C           -48.39659   15.10742    0.01053     
C           -47.94431   16.56799    0.01157     
C           -47.49201   18.02856    0.01262     
C           -47.03972   19.48914    0.01367     
C           -50.95968   4.6957      1.3957      
C           -50.35672   4.50798     2.78819     
C           -49.75376   4.32027     4.18069     
C           -49.15081   4.13256     5.57319     
C           -48.54785   3.94485     6.96568     
C           -47.94489   3.75713     8.35818     
C           -47.34194   3.56942     9.75068     
C           -46.73898   3.3817      11.14318    
C           -57.78717   -6.7359     -0.00807    
C           -58.23979   -8.19637    -0.00976    
C           -58.6924    -9.65684    -0.01144    
C           -59.14502   -11.11731   -0.01313    
C           -59.59764   -12.57779   -0.01482    
C           -60.05025   -14.03826   -0.01651    
C           -60.50287   -15.49873   -0.01819    
C           -60.95549   -16.9592    -0.01988    
C           -61.40811   -18.41967   -0.02157    
C           -61.86072   -19.88014   -0.02326    
C           -57.93725   -5.08704    -1.3989     
C           -58.53995   -4.89864    -2.79141    
C           -59.14265   -4.71025    -4.18393    
C           -59.74536   -4.52186    -5.57644    
C           -60.34806   -4.33346    -6.96896    
C           -60.95076   -4.14507    -8.36147    
C           -61.55346   -3.95668    -9.75399    
C           -62.15616   -3.76828    -11.14651   
C           -34.37942   -0.39232    -0.00054    
C           -35.18262   -1.55625    -0.00146    
C           -35.07042   0.83335     0.00034     
C           -36.45136   0.89638     0.00031     
C           -37.24996   -0.27812    -0.00065    
C           -36.57139   -1.50876    -0.00151    
N           -37.25003   2.03306     0.00116     
C           -38.58744   1.67525     0.0009      
C           -38.65656   0.15414     -0.00037    
O           -39.48635   2.50375     0.00137     
C           -36.81967   3.42284     0.00216     
C           -39.84945   -0.54634    -0.00104    
C           -41.25621   -0.11404    -0.00045    
C           -42.05453   -1.28835    -0.00171    
N           -41.25601   -2.42531    -0.00309    
C           -39.91874   -2.06769    -0.00277    
C           -41.93494   1.11627     0.00109     
O           -39.01972   -2.89617    -0.00386    
C           -41.68668   -3.81496    -0.00469    
H           -37.13178   -2.42832    -0.00226    
F           -34.36756   1.99863     0.00128     
H           -34.70237   -2.52389    -0.00214    
F           -44.13946   -2.39048    -0.00277    
H           -41.3749    2.03605     0.0021      
H           -43.80491   2.13088     0.00249     
H           -36.38982   3.28902     0.99484     
H           -37.2495    3.55665     -0.99053    
C           -36.36737   4.88341     0.0032      
H           -42.11633   -3.68066    -0.99739    
C           -42.1393    -5.27543    -0.00638    
H           -41.25702   -3.94926    0.98801     
C           -43.32417   1.16345     0.0013      
C           -43.43572   -1.2248     -0.00151    
C           -44.1263    0.0         -0.0        
C           -30.39051   0.0         -0.0        
C           -30.7375    -1.33509    -0.00106    
S           -31.87305   0.95143     0.00066     
F           -32.55975   -2.85898    -0.00238    
F           -29.87974   -2.36772    -0.00184    
C           -32.12395   -1.58922    -0.00136    
C           -32.922     -0.46399    -0.00051    
C           -35.91508   6.34398     0.00425     
C           -35.4628    7.80456     0.00529     
C           -35.0105    9.26513     0.00634     
C           -34.55821   10.7257     0.00738     
C           -34.10592   12.18627    0.00844     
C           -33.65363   13.64685    0.00948     
C           -33.20134   15.10742    0.01053     
C           -32.74905   16.56799    0.01157     
C           -32.29675   18.02856    0.01262     
C           -31.84447   19.48914    0.01367     
C           -35.76442   4.6957      1.3957      
C           -35.16146   4.50798     2.78819     
C           -34.5585    4.32027     4.18069     
C           -33.95555   4.13256     5.57319     
C           -33.35259   3.94485     6.96568     
C           -32.74963   3.75713     8.35818     
C           -32.14668   3.56942     9.75068     
C           -31.54373   3.3817      11.14318    
C           -42.59191   -6.7359     -0.00807    
C           -43.04453   -8.19637    -0.00976    
C           -43.49715   -9.65684    -0.01144    
C           -43.94976   -11.11731   -0.01313    
C           -44.40238   -12.57779   -0.01482    
C           -44.855     -14.03826   -0.01651    
C           -45.30762   -15.49873   -0.01819    
C           -45.76023   -16.9592    -0.01988    
C           -46.21285   -18.41967   -0.02157    
C           -46.66547   -19.88014   -0.02326    
C           -42.742     -5.08704    -1.3989     
C           -43.3447    -4.89864    -2.79141    
C           -43.9474    -4.71025    -4.18393    
C           -44.5501    -4.52186    -5.57644    
C           -45.1528    -4.33346    -6.96896    
C           -45.7555    -4.14507    -8.36147    
C           -46.3582    -3.95668    -9.75399    
C           -46.9609    -3.76828    -11.14651   
C           -19.18416   -0.39232    -0.00054    
C           -19.98737   -1.55625    -0.00146    
C           -19.87517   0.83335     0.00034     
C           -21.2561    0.89638     0.00031     
C           -22.0547    -0.27812    -0.00065    
C           -21.37613   -1.50876    -0.00151    
N           -22.05477   2.03306     0.00116     
C           -23.39218   1.67525     0.0009      
C           -23.4613    0.15414     -0.00037    
O           -24.2911    2.50375     0.00137     
C           -21.62441   3.42284     0.00216     
C           -24.65419   -0.54634    -0.00104    
C           -26.06095   -0.11404    -0.00045    
C           -26.85928   -1.28835    -0.00171    
N           -26.06076   -2.42531    -0.00309    
C           -24.72348   -2.06769    -0.00277    
C           -26.73968   1.11627     0.00109     
O           -23.82446   -2.89617    -0.00386    
C           -26.49142   -3.81496    -0.00469    
H           -21.93653   -2.42832    -0.00226    
F           -19.17231   1.99863     0.00128     
H           -19.50712   -2.52389    -0.00214    
F           -28.9442    -2.39048    -0.00277    
H           -26.17964   2.03605     0.0021      
H           -28.60965   2.13088     0.00249     
H           -21.19457   3.28902     0.99484     
H           -22.05425   3.55665     -0.99053    
C           -21.17212   4.88341     0.0032      
H           -26.92108   -3.68066    -0.99739    
C           -26.94404   -5.27543    -0.00638    
H           -26.06177   -3.94926    0.98801     
C           -28.12892   1.16345     0.0013      
C           -28.24047   -1.2248     -0.00151    
C           -28.93104   0.0         -0.0        
C           -15.19526   0.0         -0.0        
C           -15.54224   -1.33509    -0.00106    
S           -16.6778    0.95143     0.00066     
F           -17.36449   -2.85898    -0.00238    
F           -14.68448   -2.36772    -0.00184    
C           -16.92869   -1.58922    -0.00136    
C           -17.72674   -0.46399    -0.00051    
C           -20.71983   6.34398     0.00425     
C           -20.26754   7.80456     0.00529     
C           -19.81524   9.26513     0.00634     
C           -19.36296   10.7257     0.00738     
C           -18.91067   12.18627    0.00844     
C           -18.45837   13.64685    0.00948     
C           -18.00608   15.10742    0.01053     
C           -17.5538    16.56799    0.01157     
C           -17.1015    18.02856    0.01262     
C           -16.64921   19.48914    0.01367     
C           -20.56916   4.6957      1.3957      
C           -19.96621   4.50798     2.78819     
C           -19.36325   4.32027     4.18069     
C           -18.7603    4.13256     5.57319     
C           -18.15734   3.94485     6.96568     
C           -17.55438   3.75713     8.35818     
C           -16.95143   3.56942     9.75068     
C           -16.34847   3.3817      11.14318    
C           -27.39666   -6.7359     -0.00807    
C           -27.84927   -8.19637    -0.00976    
C           -28.30189   -9.65684    -0.01144    
C           -28.75451   -11.11731   -0.01313    
C           -29.20713   -12.57779   -0.01482    
C           -29.65974   -14.03826   -0.01651    
C           -30.11236   -15.49873   -0.01819    
C           -30.56498   -16.9592    -0.01988    
C           -31.01759   -18.41967   -0.02157    
C           -31.47021   -19.88014   -0.02326    
C           -27.54674   -5.08704    -1.3989     
C           -28.14944   -4.89864    -2.79141    
C           -28.75214   -4.71025    -4.18393    
C           -29.35484   -4.52186    -5.57644    
C           -29.95755   -4.33346    -6.96896    
C           -30.56025   -4.14507    -8.36147    
C           -31.16295   -3.95668    -9.75399    
C           -31.76565   -3.76828    -11.14651   
C           -3.98891    -0.39232    -0.00054    
C           -4.79211    -1.55625    -0.00146    
C           -4.67991    0.83335     0.00034     
C           -6.06085    0.89638     0.00031     
C           -6.85945    -0.27812    -0.00065    
C           -6.18088    -1.50876    -0.00151    
N           -6.85952    2.03306     0.00116     
C           -8.19693    1.67525     0.0009      
C           -8.26605    0.15414     -0.00037    
O           -9.09584    2.50375     0.00137     
C           -6.42916    3.42284     0.00216     
C           -9.45894    -0.54634    -0.00104    
C           -10.8657    -0.11404    -0.00045    
C           -11.66402   -1.28835    -0.00171    
N           -10.8655    -2.42531    -0.00309    
C           -9.52823    -2.06769    -0.00277    
C           -11.54443   1.11627     0.00109     
O           -8.62921    -2.89617    -0.00386    
C           -11.29617   -3.81496    -0.00469    
H           -6.74127    -2.42832    -0.00226    
F           -3.97705    1.99863     0.00128     
H           -4.31186    -2.52389    -0.00214    
F           -13.74895   -2.39048    -0.00277    
H           -10.98439   2.03605     0.0021      
H           -13.4144    2.13088     0.00249     
H           -5.99931    3.28902     0.99484     
H           -6.85899    3.55665     -0.99053    
C           -5.97686    4.88341     0.0032      
H           -11.72582   -3.68066    -0.99739    
C           -11.74878   -5.27543    -0.00638    
H           -10.86651   -3.94926    0.98801     
C           -12.93366   1.16345     0.0013      
C           -13.04521   -1.2248     -0.00151    
C           -13.73578   0.0         -0.0        
C           0.0         0.0         0.0         
C           -0.34698    -1.33509    -0.00106    
S           -1.48254    0.95143     0.00066     
F           -2.16924    -2.85898    -0.00238    
F           0.51077     -2.36772    -0.00184    
C           -1.73343    -1.58922    -0.00136    
C           -2.53149    -0.46399    -0.00051    
C           -5.52457    6.34398     0.00425     
C           -5.07229    7.80456     0.00529     
C           -4.61999    9.26513     0.00634     
C           -4.1677     10.7257     0.00738     
C           -3.71541    12.18627    0.00844     
C           -3.26312    13.64685    0.00948     
C           -2.81083    15.10742    0.01053     
C           -2.35854    16.56799    0.01157     
C           -1.90624    18.02856    0.01262     
C           -1.45396    19.48914    0.01367     
C           -5.37391    4.6957      1.3957      
C           -4.77095    4.50798     2.78819     
C           -4.16799    4.32027     4.18069     
C           -3.56504    4.13256     5.57319     
C           -2.96208    3.94485     6.96568     
C           -2.35912    3.75713     8.35818     
C           -1.75617    3.56942     9.75068     
C           -1.15321    3.3817      11.14318    
C           -12.2014    -6.7359     -0.00807    
C           -12.65402   -8.19637    -0.00976    
C           -13.10664   -9.65684    -0.01144    
C           -13.55925   -11.11731   -0.01313    
C           -14.01187   -12.57779   -0.01482    
C           -14.46449   -14.03826   -0.01651    
C           -14.9171    -15.49873   -0.01819    
C           -15.36972   -16.9592    -0.01988    
C           -15.82234   -18.41967   -0.02157    
C           -16.27496   -19.88014   -0.02326    
C           -12.35149   -5.08704    -1.3989     
C           -12.95419   -4.89864    -2.79141    
C           -13.55689   -4.71025    -4.18393    
C           -14.15959   -4.52186    -5.57644    
C           -14.76229   -4.33346    -6.96896    
C           -15.36499   -4.14507    -8.36147    
C           -15.96769   -3.95668    -9.75399    
C           -16.57039   -3.76828    -11.14651   
H           -151.58309  0.0         -0.0        
H           1.09        0.0         0.0         
